15

O  25.974611899606973  18.941520238548655  0.9369530546373767
H  25.83017430869348  18.0282054611428  1.296321566141398
H  25.540326233812667  19.502563098505313  1.6259386379800582
O  24.06460837361703  19.066757166528806  -0.873765738901053
H  24.92120439259562  19.093058530681223  -0.3222925925502345
H  23.87971078569221  19.979121502190974  -1.1733138579044498
O  24.15418085366793  20.220511349119338  2.6581650869447158
H  24.212576534199357  19.945558606122383  3.5891522777682137
H  23.45792994890998  19.618636788398963  2.292633133036688
O  22.641667926874536  18.35804634104524  1.199031162138908
H  21.684175202292874  18.216412067022862  1.121370867797082
H  22.978718146885008  19.051997805484923  0.41779727412657275
O  24.701926329771574  16.595889446415395  1.820902671303586
H  24.7156553031291  15.819098043033256  1.2395629566026392
H  23.784377364792302  16.97291477480666  1.71589641098848
