15

O  25.97025810257897  18.953738180223176  0.9259391649833891
H  25.897778736361747  18.046854490466057  1.3520193187500398
H  25.498974104965452  19.535251470610397  1.5780798584245295
O  24.051001908762448  19.073444388071497  -0.8779638417975475
H  24.840217973095406  18.808751624990037  -0.22269063141077267
H  24.308678816420166  20.071455042908692  -1.0548815844807529
O  24.153560836074245  20.22050818983299  2.665206651318472
H  24.191526915097175  19.97682888587077  3.60532255227816
H  23.495984578378188  19.595973280900868  2.265649301888719
O  22.641796020512782  18.365153926833003  1.2005356503786788
H  21.662308991567745  18.204738051314596  1.2856524631234807
H  22.87702709987206  18.720995632257065  0.26396673335817394
O  24.69655318678243  16.59120897372066  1.8245073476887446
H  24.711876585128806  15.812743302398285  1.2449885130436664
H  23.898599675603833  17.115466332684854  1.5335446227465348
