15

O  25.9713633397566  18.952378407695278  0.9274630193604655
H  25.88043764431653  18.0446076791578  1.3391194039062848
H  25.502672341844768  19.531550036784097  1.5830148761214633
O  24.051656670167144  19.07368008956256  -0.8771533615728541
H  24.84615322645848  18.842225171866282  -0.23022055248442608
H  24.267106464367647  20.060391912545104  -1.0738401364206587
O  24.153395731564963  20.220313416103867  2.664503319903663
H  24.19692980071003  19.975795275136925  3.6039122332433897
H  23.491799006080914  19.59807912078826  2.269014389152629
O  22.641552767948685  18.365607185978877  1.201537444081344
H  21.66532536762178  18.211428294900273  1.2585246552330456
H  22.897483712388052  18.715202428224934  0.2714171416884022
O  24.697121538434626  16.59138160200558  1.8245039292276515
H  24.712484511987704  15.8135803895985  1.244072448913208
H  23.892109716153353  17.107195541099244  1.544906544903218
