15

O  25.974679051289485  18.948299090111586  0.9320345824916946
H  25.828414368180873  18.03786724523303  1.30041965937502
H  25.513767052482724  19.5204457353052  1.5978199292122648
O  24.053620954381223  19.07438719403575  -0.8747219208987738
H  24.863958986547704  18.94264581249502  -0.25281031570538637
H  24.142389408210082  20.027202521454345  -1.1307157922403763
O  24.15290041803712  20.219729094916495  2.6623933256592363
H  24.213138457548588  19.972694442935385  3.59968127613908
H  23.479242289189095  19.604396640450435  2.27910965094436
O  22.64082301025639  18.366966963416502  1.2045428251893395
H  21.674374495783873  18.2314990256573  1.1771412315617402
H  22.958853549936027  18.697822816128532  0.293768366679087
O  24.698826593391214  16.59189948686033  1.8244936738443724
H  24.714308292564404  15.816091651199143  1.2413242565218332
H  23.872639837801916  17.082383166342424  1.5789923113732673
