15

O  25.97688998237944  18.967731775889952  0.9418163306411984
H  25.70275600759696  17.75690868039878  1.3377628344564703
H  25.62079742497458  19.385959091310585  1.4713140445309412
O  24.05651645684618  19.075459208966777  -0.8712483426388478
H  24.882634802238847  19.076029098545806  -0.2870927255766799
H  23.97628162997089  19.98217810710441  -1.2066650612589183
O  24.16012860036458  20.225821802303116  2.6629338301904
H  24.24081794388396  19.967555139383904  3.610959687369304
H  23.336151513809796  19.505348935372208  2.2217906851365257
O  22.63982406937612  18.368779684875303  1.2085901548356761
H  21.68696650985851  18.255807420911555  1.0681660554456063
H  23.041088443958735  18.67385902840303  0.3226790203700715
O  24.69077023911625  16.597396438936116  1.8219362195188902
H  24.710196266898542  15.834416434693077  1.2459774457862864
H  24.011350995730275  16.9568571335574  1.6572433383455802
