15

O  25.98020500881028  18.930424112055025  0.9362868346794008
H  25.787196996201516  18.16486565980061  1.2043485827717648
H  25.482441287512707  19.565480454344705  1.6906829777345296
O  24.05610177157691  19.075265395516613  -0.8715958286805762
H  24.890232598880573  19.0767954507271  -0.28084863721166003
H  23.976009185014554  19.983335946447795  -1.2064924693705408
O  24.14829569981771  20.21551409884844  2.6579030849047998
H  24.231716028058017  19.96906243030805  3.585580156315348
H  23.5256742430951  19.666555532313897  2.327959657431737
O  22.639862965311938  18.368780157562348  1.208529922582162
H  21.686176745070746  18.25948628954422  1.0688619722771968
H  23.04047577802063  18.675045485798485  0.32401548981496425
O  24.706264880441875  16.590186780531944  1.8257518902405552
H  24.72001186655073  15.811951782653463  1.2335012771068568
H  23.76434450213486  17.095521433221297  1.6080383308272101
