15

O  26.073004213778294  18.956116060273384  0.9281755363616636
H  25.882296073073913  18.042779729370146  1.2423841845040389
H  25.638335673832263  19.51252946325718  1.6158003811269053
O  24.039945572421228  19.094907936113344  -0.9255890696123291
H  24.855364121838704  19.087676311273714  -0.3453030184127241
H  24.002339703507705  19.99371227174766  -1.2938108248950757
O  24.192768968419088  20.32079030971652  2.7515490386674273
H  24.226226687178492  20.02672527341654  3.6794316702559042
H  23.465390834679663  19.78424473063214  2.356089899305723
O  22.427237017572793  18.371896222184688  1.1388621960167176
H  21.48334734881782  18.27442615593098  0.9230414291117031
H  22.87573118172336  18.663682413487283  0.2964158210073531
O  24.793108222032128  16.456240807180496  1.8718594155720376
H  24.81807498068471  15.684769426745573  1.2817822106114878
H  23.931230695601528  16.88361918446136  1.6731479393934587
