15

O  25.987558925686994  18.94941448953704  0.9459842901051654
H  25.562508111426318  18.023834194644337  1.0958203462584561
H  25.46697226435451  19.493474265299497  1.596886960447326
O  24.053256493562643  19.06981043482699  -0.8684545015673724
H  24.95831419035206  19.039580139734202  -0.3867948774769265
H  24.005669441240936  19.995928037601036  -1.165813320618025
O  24.15329709695308  20.223502626621432  2.6612959822725015
H  24.200636071127022  19.9557542368653  3.595087053321679
H  23.541518730885176  19.550854350000755  2.254766622741667
O  22.634554641704394  18.363728583715275  1.2103581915935269
H  21.68260355089245  18.263956364202002  1.053015023805662
H  23.040827767407496  18.774300309158285  0.3631504751585434
O  24.703955358675042  16.586195999466934  1.8329836638065324
H  24.687831814002298  15.825413491801083  1.2268146040752255
H  23.927366850735908  17.14691319175831  1.521316463186848
