15

O  25.979019282099863  18.942777600952777  0.9381511352820713
H  25.759458417219108  18.03089448867348  1.2485572829181892
H  25.52888363026755  19.505167676459468  1.617187120622676
O  24.056176040362825  19.073433199439968  -0.8706820012762136
H  24.889652026214144  19.075296114360118  -0.28064589159201225
H  23.97255884389158  20.013479981824656  -1.2187841334431655
O  24.150359502103104  20.219310422206483  2.6530105068725804
H  24.24471970651087  19.944943538767994  3.6899306249414616
H  23.482841125235776  19.62997378786117  2.3009065341372477
O  22.678973523220787  18.37400418165066  1.2116866758484959
H  21.05918285528307  18.181332686658145  0.9919664967937116
H  23.049777042848035  18.669300631668012  0.3481236550271234
O  24.698697417015417  16.60210691795162  1.8302130303085187
H  24.723644657829507  15.680964874278247  1.1359636410684133
H  23.877834733003414  17.03742544491604  1.6350983687616254
