15

O  25.97910896865557  18.942869155449692  0.9381276516353254
H  25.759004620308986  18.02865616792517  1.248849190786868
H  25.528524041081383  19.505692480393392  1.617601431041925
O  24.05624710662635  19.075540755617784  -0.8715686665248652
H  24.887483108198428  19.076678209515546  -0.28318378982310977
H  23.976493461789822  19.979557779797258  -1.2051906518396482
O  24.152448944210764  20.21890995308817  2.6603099436808244
H  24.233642254832123  19.971184051248002  3.5833854861176153
H  23.4602398749738  19.61091402357098  2.291643718429195
O  22.635502941864356  18.36819953537215  1.2082014804612782
H  21.756135238301884  18.266807479260205  1.0771481670229208
H  23.039669217461327  18.67524437425911  0.3208418161080974
O  24.701366953664955  16.591532564672043  1.823842996632387
H  24.71597281579672  15.834826125080195  1.2489595954368429
H  23.843218362999618  17.050619395009328  1.623255736804264
