15

O  25.979028250755434  18.94278675640247  0.9381487869173967
H  25.759413037528095  18.030670656598648  1.248586473705057
H  25.528847671348935  19.50522015685286  1.617228551664601
O  24.056183146989177  19.07364395505775  -0.8707706678010788
H  24.889435134412572  19.075434323875662  -0.280899681415122
H  23.972952305681403  20.010087761621914  -1.2174247852828137
O  24.15056844631387  20.219270375294652  2.653740450553405
H  24.243611961342996  19.947567590015996  3.6792761110590773
H  23.48058100020958  19.628067811432153  2.299980252566442
O  22.674626465085144  18.37342371702281  1.211338156309774
H  21.12887809358495  18.189880165918353  1.0004846638166325
H  23.048766260309364  18.66989500592712  0.3453954711352208
O  24.69896437068037  16.60104948262366  1.8295760269409054
H  24.722877473626227  15.696350999358442  1.1472632365052562
H  23.874373096003037  17.038744839925368  1.6339141055658892
