15

O  25.979046188066576  18.94280506730185  0.9381440901880475
H  25.759322278146072  18.030222992448984  1.2486448552787928
H  25.528775753511702  19.505325117639646  1.6173114137484508
O  24.056197360241885  19.074065466293312  -0.870948000850809
H  24.88900135080943  19.075710742906747  -0.2814072610613415
H  23.973739229261053  20.003303321216436  -1.2147060889621104
O  24.150986334735403  20.21919028147099  2.6552003379150535
H  24.241396471007246  19.952815692511997  3.6579670832943076
H  23.47606075015718  19.624255858574116  2.298127689424832
O  22.665932348813858  18.372262787767106  1.2106411172323306
H  21.268268570188713  18.206975124438763  1.0175209978624744
H  23.046744695232025  18.67108375444534  0.33993910335141564
O  24.699498278010278  16.598934611967746  1.8283020202056792
H  24.72134310521967  15.727123249518833  1.1698624273789422
H  23.86744982200228  17.041383629944026  1.631545579174417
