15

O  25.986516849104476  18.945372974153184  0.926943000913225
H  25.73157969804155  17.861481634051387  1.2943083871660133
H  25.445188364325215  19.633656904033955  1.7509407051308905
O  24.05808025754124  19.075527176311702  -0.8703837940256491
H  24.857149414770056  19.078450963827244  -0.3063090317226246
H  23.976964867969112  19.978859932977713  -1.204171762629183
O  24.154839022465172  20.221380502479807  2.660425394029239
H  24.235933658082512  19.966915684700812  3.60585255532591
H  23.417812818788907  19.575906416003445  2.269068246859991
O  22.640454275781263  18.369140075626817  1.2076015180614403
H  21.68362521394508  18.258521908126987  1.0670933886238865
H  23.031042037202393  18.669013353351545  0.3396394245875282
O  24.706478559194778  16.590366710016408  1.8261979793398866
H  24.719106143723945  15.805294681271567  1.2291407239754264
H  23.75768047963172  17.096923193246177  1.6067660722535415
