15

O  25.978331863895097  18.942666947206085  0.9384464279052172
H  25.75934442703446  18.03987065904706  1.245773628209768
H  25.53188988495016  19.497621814363622  1.6096854536742005
O  24.061560018674157  19.075429485018272  -0.8674195573889705
H  24.801566204715332  19.07626651503596  -0.3369940454808061
H  23.97610989832682  19.977116586251974  -1.2022932552263481
O  24.15184011377125  20.21840888504465  2.6592567176496913
H  24.23446730961215  19.968632016397585  3.5932505053895665
H  23.46963100459597  19.618964376881035  2.2953959474882883
O  22.642524374538663  18.37088465930185  1.202334824436714
H  21.69228691454445  18.259036663398952  1.0689981634330574
H  23.002653723101417  18.64376197549748  0.4175870735819629
O  24.700503013371254  16.59306536697455  1.8242582197912367
H  24.716377666510194  15.820075660052362  1.2379909184318518
H  23.856008118685544  17.044819719520774  1.6262413837131902
