15

O  25.9798681361049  18.943053052793914  0.9378135720947829
H  25.758755572965537  18.01788934095294  1.251866371790232
H  25.525230115049837  19.513658185636377  1.6254345463257998
O  24.05091998132584  19.07523051498173  -0.8755404426110296
H  24.973833795284666  19.076813484964042  -0.22886595451919395
H  23.97609010167318  19.988783413748024  -1.210806744773652
O  24.152639886228748  20.21949111495535  2.659903282350309
H  24.235032690387847  19.968487983602415  3.5948294946104338
H  23.455368995404026  19.606675623118964  2.2897440525117116
O  22.637175625461335  18.36667534069815  1.214765175563286
H  21.680593085455552  18.257483336601048  1.0682618365669425
H  23.07870627689858  18.70553802450252  0.22955292641803715
O  24.701696986628747  16.592114633025453  1.8247017802087635
H  24.71710233348981  15.818804339947638  1.2373290815681481
H  23.837351881314454  17.053780280479224  1.62263861628681
