15

O  25.97722122520115  18.941841657782494  0.9417677556146675
H  25.780065053115734  18.011766655384893  1.209220179653705
H  25.542213841667273  19.542917189866753  1.5941826189674915
O  24.056856271971874  19.07653463022604  -0.8716506446710403
H  24.883222369286795  19.057434878886863  -0.27555480886569406
H  23.965951897586134  19.97996287332216  -1.2127156174371319
O  24.15221341224601  20.218484265900265  2.659761573696768
H  24.235211910355854  19.97081759592034  3.5945433907452014
H  23.4613110920163  19.615598561839754  2.2903521438751415
O  22.63912574215196  18.368932292175895  1.2077084051502853
H  21.685274803852213  18.25521838939813  1.0787579432905454
H  23.05663706985705  18.674767418309614  0.33015749220363794
O  24.701305954122496  16.592930955247443  1.8251400932092763
H  24.713793608253994  15.82187191332344  1.2345481161063254
H  23.844203013048364  17.0432913414787  1.619291831559193
