15

O  25.965948576408035  18.935731604477464  0.9635942893026724
H  25.906155371810158  17.909086587694233  0.9716212575759349
H  25.624136891670915  19.76658032906726  1.4539183327724405
O  24.060553903803115  19.08376241158227  -0.8726745126972819
H  24.85635658500758  18.942804152208026  -0.2313036620598582
H  23.905063283102955  19.96204011325515  -1.2497093220599222
O  24.152053885722065  20.215689861301865  2.6608510158773746
H  24.237983372490987  19.98436317144239  3.5975637352164074
H  23.4541776441141  19.632269932878287  2.277045007125991
O  22.63478019506374  18.369846045231267  1.202658836051997
H  21.678283626965477  18.23696872578691  1.139525603033818
H  23.15237948899936  18.67547192816731  0.36968244542546524
O  24.702541678857475  16.59497668673209  1.829100652464933
H  24.69611525777794  15.836463393264081  1.215876812744278
H  23.829341091338552  17.0072393903509  1.5884028209143513
