15

O  25.96226766871238  18.952078718048615  0.9465448538117806
H  25.791692538488487  18.004064084701113  1.1827328806184672
H  25.49942555748589  19.45300434922561  1.6697494835286972
O  24.059587989157915  19.066125921298312  -0.8621711899316501
H  24.887505566288585  19.081614796478885  -0.26554228100264987
H  23.97027939643278  19.97112508451682  -1.202023254116624
O  24.163082743719546  20.2233425906544  2.6625876075867687
H  24.173998113969915  20.06658272141004  3.6281049649859467
H  23.47456400373926  19.607704826008195  2.306999120934678
O  22.640723644344394  18.36723889252264  1.2041388978431609
H  21.678856539027464  18.324776812360287  1.0689433646184625
H  23.05126567017809  18.673732077201343  0.32129981421540904
O  24.71477646286929  16.606296581455304  1.7863978844395816
H  24.586278860802192  15.530417690024498  1.5977959391713783
H  23.83633707839015  17.00099672122571  1.5551278439069491
