15

O  25.976695381244625  18.94417695972123  0.9393321219731116
H  25.76371321978407  18.025334869243018  1.2393789829454953
H  25.524397936783696  19.498120621317945  1.6250156405040996
O  24.056718284165417  19.074015131614047  -0.8701501699902358
H  24.887672223755512  19.077264970925555  -0.2804460401432357
H  23.975268485204683  19.981260726359544  -1.2059033220166606
O  24.153788963388507  20.21957751295063  2.6600096582266812
H  24.22607115913856  19.98256324591572  3.5989064235694213
H  23.46422342910561  19.612089260858312  2.2946313029906684
O  22.639974806334912  18.36855984178895  1.207919842549023
H  21.685356648432496  18.267762401765754  1.068674766374066
H  23.04219223859687  18.67451886817162  0.32324568774505846
O  24.7030537804099  16.594548083065046  1.819039697777083
H  24.698102694400315  15.778151098574929  1.2891079913101968
H  23.84520243977002  17.04239953160367  1.6145382634152785
