15

O  25.959863049957004  18.953395677769848  0.9477469757848921
H  25.796355758272558  18.00051895394413  1.1732918635639624
H  25.495263494269587  19.445484970543554  1.6772051240327968
O  24.060066273323333  19.064811052912354  -0.8608413599218858
H  24.887477790044098  19.08233976740444  -0.26305832114588557
H  23.969447881637464  19.96943581087637  -1.2013765761332844
O  24.164631707108054  20.22397010360503  2.66301726581345
H  24.165319273108476  20.08058596732576  3.632971388555368
H  23.47628743284487  19.606974086866508  2.3090604239253465
O  22.640848450679307  18.367018734311586  1.2035087403921838
H  21.67777318745996  18.334279214126042  1.0689881309925284
H  23.052777908774956  18.673600945372964  0.3209755019604675
O  24.716730243279184  16.60825466452035  1.7809575822166646
H  24.567641555202506  15.489128788599427  1.6492439304815751
H  23.834859518160172  16.994096252829383  1.5452261073222275
