15

O  25.986313856266122  18.938909120836307  0.9345236340806655
H  25.74506034064779  18.039515392270953  1.277143051163514
H  25.541046189648902  19.528198136046168  1.5951930784877013
O  24.05480514750375  19.079274605157867  -0.8754694900292929
H  24.887783328733462  19.074365087223338  -0.29038187957029293
H  23.97859454438595  19.98801782092136  -1.2084900339500184
O  24.147593109834478  20.217067461148112  2.6582910253199565
H  24.26078652258432  19.926550262252842  3.579440729291737
H  23.457329712683173  19.615012217425058  2.286386091027995
O  22.63947558099526  18.369440474633155  1.2104404723529312
H  21.689690054702517  18.229752794702733  1.0684957008778018
H  23.036143284209388  18.675043395485137  0.3245429367648247
O  24.695238658770307  16.58671575080487  1.840800906668751
H  24.772651916799063  15.943306704275216  1.0833160260694092
H  23.851112680689933  17.07000140518898  1.654145209754165
