15

O  25.971886143733876  18.946810879163692  0.9417363659193345
H  25.773039659352207  18.01824460772905  1.220496948836486
H  25.516073810351095  19.48308186395383  1.639926921512299
O  24.05767485249625  19.071385394842135  -0.8674905099707072
H  24.887616671266535  19.078714912776665  -0.2754781204297071
H  23.97360545561405  19.977882179078637  -1.2046099660499816
O  24.15688689016552  20.220832538851887  2.6608689746800436
H  24.208713477415678  20.010569737747158  3.608639270708263
H  23.467670287316825  19.61062778257494  2.298753908972005
O  22.64022441900474  18.368119525366847  1.2066595276470689
H  21.683189945297485  18.286767205297267  1.0687642991221982
H  23.04521671579061  18.674256604514863  0.32259706323517534
O  24.706961341229693  16.598464249195132  1.8081590933312492
H  24.66082808320094  15.695573295724785  1.3920039739305907
H  23.842247319310065  17.02859859481102  1.5947347902458353
