15

O  25.972704018923306  18.99540874940539  0.8719772830306787
H  25.778828940333558  18.08041498738285  1.1952957625026153
H  25.524665094146663  19.539744999018776  1.5693335245352922
O  24.059815586014235  19.024174077441813  -0.9540401084949406
H  24.884148242100572  19.074059578784  -0.3558382541628437
H  23.981962103027172  19.90135039647442  -1.3713648885935625
O  24.183245630306477  20.082387979166533  2.786401316929626
H  24.342854646166504  19.599466569586173  3.6523023969919697
H  23.479591987700115  19.548525508974006  2.3273355821507447
O  22.62161028843304  18.410578017799352  1.1439009682525227
H  21.668144450758014  18.304002683439823  1.0030726209737684
H  23.031423030545845  18.688076938060505  0.2543581973247658
O  24.685987559393688  16.703544853906354  1.9192766672875574
H  24.697735107137174  15.83206215764791  1.462302928368679
H  23.831849118721866  17.13027045699456  1.649981403910389
