15

O  25.98309748817293  18.91001703162163  0.9794754481058259
H  25.746688162291523  17.99667063288572  1.2822726484358655
H  25.53099431615833  19.484324375613266  1.6477015471654426
O  24.0540052587411  19.10730245159887  -0.8198799321906621
H  24.88991984868714  19.078090263260005  -0.2373623411482227
H  23.972436185608018  20.033949752203487  -1.1035406946290234
O  24.132861481058452  20.304301263020914  2.580316676918984
H  24.167184596145933  20.19924339400864  3.557626001880019
H  23.451817507687426  19.653004056891245  2.2708415111557843
O  22.651249819729347  18.342656238875406  1.2489556448421733
H  21.697874718276243  18.22967082285011  1.1096033618913947
H  23.046465605908843  18.666258163712182  0.3668273766720214
O  24.710545275378944  16.52324321630853  1.7652320829452768
H  24.72861805803927  15.811551151470058  1.0972581697695756
H  23.85594930079883  16.9986934643784  1.608476622556007
