15

O  25.975102511827068  18.975702968378368  0.8967845518941742
H  25.771411837708474  18.06108936711428  1.2153673515641346
H  25.526125683841666  19.526955624386733  1.5874184528345576
O  24.058474741258898  19.043357548401133  -0.9230800678093379
H  24.88548015131286  19.074989736739997  -0.32849765885177734
H  23.97976381439198  19.93195024779651  -1.3095593053709766
O  24.171618518941546  20.133598736979085  2.7388433230810163
H  24.302315403854063  19.73787660599136  3.630453998119981
H  23.47318249231257  19.572635943108754  2.3142984888442157
O  22.62845018027065  18.394903761124596  1.1681443551578268
H  21.67500528172376  18.28684917714989  1.0276566381086052
H  23.034894394091154  18.683041836287817  0.2803126233279786
O  24.691654724621056  16.661936783691473  1.8837279170547234
H  24.704861941960733  15.827328848529943  1.3780618302304244
H  23.83741069920117  17.0999065356216  1.6404033774439932
