15

    O       25.97910       18.94286        0.93813
    H       25.75905       18.02888        1.24882
    H       25.52856       19.50564        1.61756
    O       24.05624       19.07533       -0.87148
    H       24.88770       19.07654       -0.28293
    H       23.97610       19.98295       -1.20655
    O       24.15224       20.21895        2.65958
    H       24.23475       19.96856        3.59404
    H       23.46250       19.61282        2.29257
    O       22.63985       18.36878        1.20855
    H       21.68644       18.25826        1.06863
    H       23.04068       18.67465        0.32357
    O       24.70110       16.59259        1.82448
    H       24.71674       15.81944        1.23766
    H       23.84668       17.04930        1.62444
