15

O  25.97910752748677  18.942878463140513  0.9380832546194381
H  25.758918568602216  18.028368173839674  1.2489060629589688
H  25.528352890206826  19.506011294537384  1.6180087914227188
O  24.056868951635085  19.071131700737887  -0.8697083830906615
H  24.885471486629548  19.074400096161067  -0.2839138057528958
H  23.968517500157958  20.051720799831646  -1.233358408279649
O  24.152278222774857  20.21891896554209  2.6597650940638276
H  24.234426682100985  19.96927386755613  3.591105364650974
H  23.46222035254061  19.6125913057071  2.292577595091773
O  22.639681702918736  18.368776552747  1.2084730101354113
H  21.68965887481955  18.25867537406453  1.0689932450733757
H  23.040159541176436  18.674123776900952  0.32431089633271515
O  24.701108520727836  16.592565046847312  1.8244630891033604
H  24.716721911915922  15.819835835803765  1.2379514666833529
H  23.846579949862193  17.049319782030864  1.624406525258223
