15

O  25.979054835079367  18.94274922115693  0.9384104722833715
H  25.759838588386703  18.031950956961957  1.2483036222461874
H  25.52980265875904  19.5034122327757  1.6148672514636877
O  24.052466290189482  19.10051979557269  -0.8821097014560315
H  24.901071080222696  19.08937942303361  -0.2770271654826251
H  24.02159499905225  19.570325201010117  -1.045699550322106
O  24.15201066335085  20.219136206747443  2.6584694356170355
H  24.236689907394087  19.964276794663217  3.6116478120941555
H  23.464177884756335  19.61419216575739  2.292524429449364
O  22.640859782487578  18.368800683518007  1.209011939187532
H  21.6671267510827  18.255767755612823  1.066450529559746
H  23.04380275294136  18.67780733859429  0.3191246220037094
O  24.701048875632992  16.592739718916125  1.8245814653798382
H  24.716848528504467  15.81706498517741  1.2359111998998829
H  23.84728030082683  17.04918130781481  1.6246408484506627
