15

O  25.97916774738095  18.943026168264606  0.9377092915749428
H  25.757867117419945  18.024273564557067  1.249594566630719
H  25.526696011861443  19.50898165083645  1.6215991228044686
O  24.061900564715778  19.03754530664097  -0.8555354478159528
H  24.867643379665953  19.05728086544959  -0.2917842517760624
H  23.90785750142162  20.601887198484825  -1.4478256745168412
O  24.152584004973722  20.21867068987883  2.6612458465744466
H  24.23184013890886  19.974984808005175  3.567628281858767
H  23.459983172865496  19.61076175136391  2.2926383558259547
O  22.63833532626863  18.368748974722994  1.207857091218702
H  21.71540987337595  18.261998366580766  1.0718992056603809
H  23.035995870587954  18.66991399210856  0.330238066994436
O  24.701176686550514  16.592365421625814  1.824327801930243
H  24.7165772072433  15.823002522233887  1.2402832001501756
H  23.845779548759754  17.049478038277783  1.6241387273240062
