15

O  25.784745492687815  18.90437726732161  0.9335554190793366
H  25.60663004599217  17.988199590886047  1.267881210767454
H  25.396789224595047  19.487738231919863  1.636072157590028
O  24.046354663266417  19.133910235007278  -1.0492290631948296
H  24.838374426936106  19.115522737214885  -0.40745722994920164
H  23.96280147705521  20.061002292724062  -1.3311725837338328
O  24.14100830786769  20.32985956326759  2.7815061408838675
H  24.24762731978862  20.0215273626788  3.6985306491764884
H  23.508136258548532  19.684954733913976  2.3716905056245516
O  22.830451356769807  18.383169645079406  1.1911476906913074
H  21.869594350030766  18.25072442104863  1.1141530153373542
H  23.145995910398657  18.70165980385305  0.2748400210409565
O  24.71970190157563  16.447402891214235  1.900788302854916
H  24.757768332591954  15.7060876266229  1.272349888255965
H  23.904964771356354  16.95629666506012  1.6445937067955345
