15

O  26.197748820726208  18.986153074263186  0.9432764035357464
H  25.930522448258806  18.074645460253198  1.2273761378866144
H  25.676802122330567  19.52577948909015  1.5967338227112187
O  24.06736100382528  19.009427235616815  -0.6715123039058168
H  24.94319126969688  19.032684420633256  -0.14283686630714815
H  23.99106083831289  19.895141170685427  -1.0663495932994382
O  24.16487565364885  20.09417674132396  2.5224130915056495
H  24.2202630152378  19.90897171698635  3.476488019676451
H  23.411159209132897  19.531668424346776  2.203559431172379
O  22.425423473633966  18.35259164928567  1.228127597972279
H  21.48039135621539  18.26673752632029  1.0174166077454765
H  22.92219960080151  18.644263970665317  0.37839122632892397
O  24.680172860727417  16.75592549738399  1.7386331592882198
H  24.670583125834057  15.94696142004924  1.1986338757120394
H  23.7811096322241  17.153928751807364  1.6017670798550239
