15

O  25.809039806101836  18.90918760890641  0.9341272416944195
H  25.625682540243147  17.99328464202529  1.2654985594215222
H  25.413260571520667  19.489975952929882  1.6337581378912747
O  24.047590330358116  19.12658770563137  -1.027010430295476
H  24.844540123569093  19.110649895063027  -0.39189132620555145
H  23.964463792423306  20.051245756133557  -1.3155947607671037
O  24.142412269384227  20.31599586785914  2.766265373273384
H  24.24601765481504  20.01490644234395  3.685469318029427
H  23.50243172622997  19.67593789217473  2.3618004424214827
O  22.80662618717358  18.38137093944448  1.193322979354894
H  21.846700056276923  18.25166636841755  1.108462638420185
H  23.132831421598823  18.69828357837142  0.28093126841083693
O  24.717376663878678  16.465551279812455  1.8912497649980515
H  24.75263979101796  15.720256673295037  1.2680136522239693
H  23.89767917493681  16.967922081927604  1.6420744934460927
