15

O  25.881922746343907  18.923618633660805  0.9358427095396683
H  25.682840022996082  18.008539795443024  1.258350605383727
H  25.462674612297523  19.49668911595993  1.626816078795014
O  24.051297331633208  19.10462011750364  -0.9603545315974148
H  24.86303721346805  19.096031368607445  -0.3451936149746008
H  23.969450738527602  20.021976146362032  -1.2688612918669164
O  24.146624153933843  20.274404781633795  2.7205430704419338
H  24.24118865989431  19.9950436813394  3.646285324588244
H  23.485318129274265  19.648887366956988  2.332130252812276
O  22.7351506783849  18.375974822539703  1.1998488453456537
H  21.778017175015385  18.254492210524315  1.091391507668677
H  23.093337955199328  18.688154901926527  0.29920501052047827
O  24.710400950787815  16.519996445607116  1.862634151427458
H  24.737254166295976  15.76276381331145  1.2550049441279825
H  23.875822385678177  17.00279833253006  1.6345168533977672
