15

O  25.83333411951586  18.913997950491208  0.9346990643095024
H  25.644735034494126  17.998369693164534  1.2631159080755905
H  25.429731918446286  19.492213673939897  1.631444118192521
O  24.04882599744981  19.119265176255457  -1.0047917973961222
H  24.85070582020208  19.105777052911165  -0.37632542246190126
H  23.966126107791407  20.04148921954305  -1.3000169378003745
O  24.143816230900768  20.302132172450694  2.7510246056629004
H  24.244407989841463  20.0082855220091  3.6724079868823662
H  23.4967271939114  19.666921050435484  2.3519103792184137
O  22.782801017577356  18.379572233809554  1.1954982680184807
H  21.823805762523076  18.25260831578647  1.1027722615030158
H  23.119666932798992  18.69490735288979  0.28702251578071736
O  24.715051426181724  16.483699668410676  1.881711227141187
H  24.747511249443964  15.734425719967174  1.2636774161919737
H  23.890393578517266  16.97954749879509  1.6395552800966509
