15

O  26.027688626828045  18.952480683169597  0.9392736452301659
H  25.797154988501955  18.03905010227849  1.2440546973081366
H  25.561502693851235  19.510115442020034  1.6129319606024932
O  24.058711334183396  19.060684941248184  -0.8270427342012927
H  24.900031393265973  19.06679431569628  -0.2517981925126996
H  23.979424630736197  19.963436926818982  -1.175394354066542
O  24.155047923033077  20.1912226091831  2.6290984647790334
H  24.231530670052845  19.9553181593303  3.567917337705878
H  23.451090935362863  19.594786316521503  2.272789873593862
O  22.592199660807548  18.36518258873015  1.212900577327173
H  21.64065141249231  18.260143894737844  1.0572492461656613
H  23.014351022400334  18.667897549036738  0.33575249473976093
O  24.69644952460609  16.628886777196442  1.805402924286271
H  24.706482916852014  15.847778093344276  1.2289875279360087
H  23.83210880716091  17.07255083373497  1.6194015733011164
