15

O  26.14916019389816  18.97653239109359  0.9421327583055805
H  25.89241745975685  18.06447535797471  1.2321414405784779
H  25.64385942847933  19.521304047070117  1.6013618621087256
O  24.064889669641882  19.024072294368633  -0.7159495697045243
H  24.930859876430905  19.042430104936976  -0.17396867379444858
H  23.987736207576692  19.91465424386644  -1.0975052392328963
O  24.16206773061577  20.12190413214086  2.552894626726616
H  24.223482345184955  19.92221355765605  3.502610681970573
H  23.42256827377003  19.54970210782527  2.2233395575785173
O  22.473073812826417  18.356189060555522  1.223777020645106
H  21.52617994372308  18.26485363158245  1.028797361579815
H  22.948528578401174  18.65101642162858  0.3662087315891631
O  24.684823336121323  16.719628720187547  1.7577102350019487
H  24.680840208982044  15.918623326704964  1.2073063477760306
H  23.79568082506319  17.130677918072394  1.6068055065539075
