15

O  26.100571567070116  18.96691170792399  0.9409891130754147
H  25.854312471254893  18.05430525569622  1.2369067432703413
H  25.61091673462809  19.516828605050083  1.6059899015062327
O  24.06241833545849  19.038717353120454  -0.7603868355032316
H  24.918528483164934  19.0521757892407  -0.20510048128174896
H  23.984411576840493  19.934167317047457  -1.1286608851663544
O  24.159259807582693  20.149631522957755  2.583376161947583
H  24.226701675132112  19.93545539832575  3.528733344264695
H  23.433977338407164  19.567735791303765  2.243119683984655
O  22.52072415201887  18.359786471825373  1.219426443317933
H  21.571968531230773  18.262969736844607  1.0401781154141536
H  22.97485755600084  18.65776887259184  0.35402623684940226
O  24.68947381151523  16.683331942991106  1.7767873107156777
H  24.69109729213003  15.890285233360688  1.2159788198400219
H  23.81025201790228  17.107427084337424  1.6118439332527912
