15

O  25.976243647555346  18.95166884350324  0.9443021412461676
H  25.758734539223884  18.036486625908196  1.2532478411227563
H  25.52274094054666  19.512985298807326  1.6231287332078779
O  24.060271405693996  19.05199227406274  -0.8739782949399804
H  24.888952605068052  19.068196974803623  -0.2814740702235423
H  23.98189052916852  19.950550808651666  -1.2338943455554603
O  24.151645238630287  20.22448620381528  2.6699391164304807
H  24.23465150552301  19.968652470165207  3.602897755941604
H  23.461523062093143  19.620629518831752  2.2996585715106734
O  22.639340925430762  18.37962500749044  1.2148938261577473
H  21.685673391219844  18.26950469904824  1.0762433600578385
H  23.04035206632152  18.675441027506267  0.32672228705108275
O  24.701107407885242  16.590120594554964  1.80630025632201
H  24.716732742319437  15.83273167944033  1.198633774080236
H  23.846700779612927  17.051654349789853  1.6177773911069906
