15

O  25.956249180442793  19.013330748025908  0.9875071299693404
H  25.756526313791085  18.089733007265565  1.284242728982051
H  25.482007524373298  19.56440239045861  1.6621098656630227
O  24.08849124555196  18.888628192501926  -0.8914663595198425
H  24.89772084054443  19.009795798428964  -0.27128256178833826
H  24.02242423334818  19.72375646921333  -1.4253047644436814
O  24.1474819090423  20.263239630522257  2.7424529314438435
H  24.233962044184103  19.96929976132166  3.66490204753283
H  23.454684496745156  19.67529615065402  2.3492785720853875
O  22.63577740344609  18.455540059923496  1.2593006092619794
H  21.680307129758734  18.34821759238594  1.1295368804627073
H  23.038056530572174  18.68097822005014  0.3487882964086616
O  24.70115926308195  16.572834756439704  1.6790420505760801
H  24.716681938555496  15.925773435522645  0.9254501926418871
H  23.84684623690342  17.068134798318834  1.571139128855923
