15

O  25.95339282799814  19.022139591529147  0.993679271215508
H  25.75621085301497  18.09733963317376  1.2886705701048073
H  25.47618846491996  19.571747689265937  1.6676785988709006
O  24.092522651245957  18.865290466564666  -0.8939646544598228
H  24.898973445612484  19.001452773232586  -0.26982663201188056
H  24.0282147625167  19.691357277865  -1.4526491099991417
O  24.146887147672583  20.26877583433754  2.752812047874324
H  24.233863549707117  19.96939223148687  3.673759803474434
H  23.4537075588383  19.683105669485773  2.356367143596061
O  22.635268328876855  18.466385067413935  1.2656444354197267
H  21.679540520978577  18.359462291434184  1.1371502405205458
H  23.037728596893697  18.681769247556407  0.3519405834597443
O  24.701166670967194  16.570365350994667  1.6608623068980903
H  24.71667468087493  15.939065114962975  0.886423966722123
H  23.84686701651635  17.07048914810869  1.5644765199629136
