15

O  25.961961885332094  18.99571306101943  0.9751628474770053
H  25.757157235343314  18.074519755449174  1.2753870467365382
H  25.493645643279972  19.549711792843958  1.6509723992472671
O  24.08042843416397  18.935303644376447  -0.8864697696398819
H  24.89521563040832  19.026481848821724  -0.2741944213412537
H  24.010843175011132  19.78855485191  -1.3706160733327613
O  24.14867143178172  20.252167222891693  2.7217346985828827
H  24.234159033138077  19.969114820991248  3.647186535649623
H  23.456638372558864  19.659677112990515  2.3351014290640406
O  22.63679555258457  18.433850044942623  1.2466129569464846
H  21.681840347319053  18.325728194289457  1.1143101603470305
H  23.03871239792913  18.679396165037605  0.3424837223064962
O  24.701144447311464  16.57777356732978  1.7154015379320602
H  24.716696453916622  15.899190076641984  1.0035026444814152
H  23.846804677677564  17.063426098739125  1.5844643466419424
