15

O  25.97889525177846  18.94271304358069  0.9388002039509451
H  25.76194789250135  18.02453971488383  1.2402372770262684
H  25.52883972978395  19.512722197549294  1.6121695376255298
O  24.056422049405782  19.0752459192108  -0.8715919702178405
H  24.88686000943528  19.075925042240375  -0.281206725822817
H  23.974421985960024  19.982861206125335  -1.2063286221997485
O  24.149349189999324  20.215110058363365  2.662833521598744
H  24.27414241938986  20.006363470772722  3.6003158163698097
H  23.47261358564802  19.638435124700603  2.2311662641073324
O  22.6396024318537  18.367911605369862  1.2088695173509865
H  21.68654055228847  18.260419475854434  1.0631213354499331
H  23.03671946617281  18.68235233942235  0.3244835674460097
O  24.695632754836943  16.58975490068749  1.8193870712697966
H  24.78573199829194  15.801218310848974  1.2645358834568299
H  23.868320093136884  17.1155896416873  1.6845778457636702
