15

O  25.97981661877538  18.943374347467586  0.9357842861716923
H  25.748907376245267  18.044070997906598  1.2788595304080608
H  25.527580945756167  19.480852308577465  1.6364266183106464
O  24.055602827079753  19.075624282762202  -0.8710881042375583
H  24.890639966976504  19.078692352158697  -0.2889614596201404
H  23.981973049139913  19.98326077856132  -1.2073248223008808
O  24.162357835002368  20.232389795728228  2.6481926744043953
H  24.09687653213548  19.83624785229548  3.5720746427056675
H  23.427102450231924  19.52316706354788  2.507483075624336
O  22.640716488512044  18.371819381205494  1.2074316892715475
H  21.686088066990358  18.250701834509478  1.0879103259252338
H  23.05454186839516  18.647691812021773  0.3203725139389661
O  24.720235358070706  16.602512847593793  1.8423052505557123
H  24.47526800597822  15.883215912028593  1.1435944079010958
H  23.7709396740209  16.817286254094437  1.4139575398271547
