15

O  25.978485755335388  18.942419130742067  0.9401406118528352
H  25.767743677504054  18.01585914465149  1.2230718310788051
H  25.529399189351857  19.526886592647884  1.601388612876589
O  24.056786148217352  19.0750777576324  -0.8718159106535215
H  24.88518002830585  19.07469512672112  -0.2777601774684511
H  23.971065957880075  19.982683618376008  -1.2058858665992451
O  24.14356756999797  20.207430175090092  2.6693405647962325
H  24.352927258169586  20.081970412318164  3.6128674491094284
H  23.492840756944062  19.689665374101814  2.1083587923219977
O  22.639107295561104  18.36617481610958  1.2095085520529592
H  21.686741656865408  18.264738427563305  1.0521040063497995
H  23.028798398518433  18.69775701826705  0.3263107023380291
O  24.684698264510825  16.584084702062466  1.8092012138093898
H  24.923715994875817  15.76477493254692  1.3182876503704894
H  23.911600279410656  17.248168925061908  1.8048535372910104
