15

O  25.97911793731114  18.94287831089938  0.9381253032706509
H  25.758959240617973  18.02843233585034  1.2488783815737359
H  25.528488082162763  19.505744960786785  1.6176428620838499
O  24.056254213252704  19.075751511235563  -0.8716573330497304
H  24.887266216396856  19.076816419031086  -0.2834375796462195
H  23.97688692357965  19.97616555959452  -1.2038313036792965
O  24.15265788842153  20.218869906176337  2.6610398873616488
H  24.232534509664248  19.973808102496  3.572730972235231
H  23.457979749947604  19.60900804714196  2.2907174368583894
O  22.631155883728713  18.3676190707443  1.2078529609225566
H  21.825830476603763  18.275354958520413  1.085666334045842
H  23.038658434922656  18.67583874851822  0.3181136322161948
O  24.701633907329906  16.590475129344085  1.8232059932647737
H  24.715205631593445  15.85021225016039  1.260259190873686
H  23.83975672599924  17.051938790018657  1.6220714736085278
