15

O  25.979064125377718  18.942823378201233  0.9381393934586983
H  25.759231518764047  18.029775328299323  1.2487032368525286
H  25.528703835674467  19.50543007842643  1.6173942758323006
O  24.05621157349459  19.074486977528874  -0.8711253339005394
H  24.888567567206287  19.07598716193783  -0.281914840707561
H  23.974526152840703  19.996518880810957  -1.2119873926414069
O  24.151404223156934  20.219110187647324  2.656660225276702
H  24.239180980671495  19.958063795007998  3.6366580555295385
H  23.471540500104787  19.620443905716076  2.2962751262832213
O  22.65723823254257  18.371101858511405  1.2099440781548871
H  21.407659046792478  18.224070082959177  1.0345573319083163
H  23.044723130154683  18.672272502963562  0.33448273556761043
O  24.700032185340184  16.596819741311833  1.8270280134704528
H  24.719808736813114  15.757895499679222  1.192461618252628
H  23.860526548001516  17.044022419962683  1.6291770527829448
