15

O  25.97913587462228  18.942896621798766  0.9381206065413017
H  25.75886848123595  18.02798467170068  1.2489367631474715
H  25.52841616432553  19.50584992157357  1.6177257241676997
O  24.056268426505408  19.076173022471128  -0.8718346660994607
H  24.88683243279371  19.07709283806217  -0.283945159292439
H  23.977673847159295  19.96938111918904  -1.2011126073585932
O  24.153075776843064  20.218789812352675  2.662499774723298
H  24.2303190193285  19.979056204992002  3.5514219444704618
H  23.45345949989521  19.605196094283922  2.2888648737167787
O  22.622461767457427  18.366458141488597  1.207155921845113
H  21.965220953207524  18.292449917040823  1.1027026680916836
H  23.036636869845314  18.677027497036438  0.3126572644323896
O  24.702167814659816  16.58836025868817  1.8219319865295474
H  24.71367126318689  15.880984500320778  1.282858381747372
H  23.832833451998482  17.054577580037314  1.6197029472170554
