15

O  25.979126905966712  18.942887466349074  0.9381229549059763
H  25.758913860926963  18.02820850377551  1.2489075723606036
H  25.528452123244147  19.505797441180178  1.6176842931257749
O  24.056261319879056  19.075962266853345  -0.8717459995745955
H  24.887049324595285  19.07695462854663  -0.28369136946932927
H  23.977280385369472  19.97277333939178  -1.202471955518945
O  24.1528668326323  20.218829859264506  2.661769831042473
H  24.231426764496373  19.976432153744003  3.562076458352846
H  23.455719624921407  19.60710207071294  2.2897911552875843
O  22.62680882559307  18.36703860611645  1.2075044413838347
H  21.895525714905645  18.28390243778062  1.0941845010687627
H  23.037647652383985  18.67643312277733  0.3153854483242922
O  24.70190086099486  16.589417694016127  1.8225689898971607
H  24.714438447390165  15.865598375240584  1.2715587863105289
H  23.83629508899886  17.053258185027985  1.6208872104127916
