15

O  25.98784634313147  18.872747029089876  0.917723880550779
H  25.74315303659788  17.96554163092942  1.2384889440295466
H  25.56384737718969  19.452219755755163  1.5972016794824841
O  24.054493643286072  19.077097551311102  -0.8734059618786547
H  24.89138454827546  19.044748252992513  -0.29203892327809944
H  24.00443259669901  19.990700081431452  -1.199675629790383
O  24.09399543969162  20.2131963287277  2.672215082419832
H  24.138785660637456  19.969695134924866  3.6114812970754087
H  23.417798971097497  19.605126889944152  2.280396164704344
O  22.637135143801164  18.41936135469871  1.2230807863106314
H  21.67975361346169  18.335750510287426  1.088720827693496
H  23.04058700057439  18.712997251132887  0.33458635053454344
O  24.756061301260825  16.616725167254472  1.817576884776658
H  24.75371609112372  15.829600968062381  1.2483709882382485
H  23.889840681926938  17.060860445279644  1.643120035272895
