15

O  25.967438209158036  19.0363439612135  0.9653381592656279
H  25.780245951202822  18.113331158760776  1.262594741293938
H  25.48151016374708  19.576866992326448  1.6447044273566882
O  24.05856847561857  19.07297326491853  -0.8689120508284606
H  24.882787268966048  19.118928996009984  -0.2707847689625341
H  23.938323204401318  19.972616558091396  -1.215715826946156
O  24.229899413744505  20.226621561696398  2.6427332234402243
H  24.36270245248339  19.967046486766844  3.5707849372327884
H  23.52210137187  19.62307748007446  2.308801780394208
O  22.643469808265113  18.301338193735052  1.1891756182524915
H  21.695355182051085  18.154939319616766  1.0418422297420051
H  23.040803999234143  18.623520331822817  0.3088815326206088
O  24.627818264985567  16.56040977699404  1.833684153631123
H  24.667438545168373  15.805892042583492  1.223378682349002
H  23.789132424097414  17.03388607296047  1.599533286302807
