15

O  25.987669919348427  18.940149294516875  0.9376337044342827
H  25.736297781489753  18.032072400175167  1.2509495782771605
H  25.43916178471556  19.515305717553566  1.5472561239784894
O  24.058262674791322  19.073436244941977  -0.8782788684253783
H  24.7935287979109  19.120082589525644  -0.13928683984089635
H  23.971489724972482  19.984920810802112  -1.2034232142573273
O  24.153553018372982  20.220623456577762  2.6612494962643707
H  24.212834806423533  19.964869801076777  3.596785095265674
H  23.49049700069026  19.591784000116284  2.279224880680454
O  22.640723419611557  18.36713907130757  1.2116093828072647
H  21.691295949703093  18.26477876898214  1.030874200398824
H  23.032462381423954  18.70829138671184  0.3325184566640703
O  24.7017168690233  16.5921901102951  1.825017886705717
H  24.70656394963168  15.818840796379918  1.2375593991119556
H  23.852465152130367  17.05500015695827  1.6175444711234572
