15

O  26.004809758045287  18.934727883550625  0.936641113302848
H  25.69079334446926  18.0384572005255  1.255208734831481
H  25.260365354146682  19.534637152660697  1.4066483719354683
O  24.062308024373966  19.069648734825925  -0.8918766052761347
H  24.6051863937327  19.207167768576934  0.14799948047731093
H  23.96226917491745  19.98886243240634  -1.1971696427719818
O  24.15617905511895  20.223970369733287  2.6645884887931115
H  24.169004419270607  19.95748940323033  3.6022752857970226
H  23.546491002070788  19.54971200034885  2.2525346420413617
O  22.642470258834674  18.36385721392271  1.2177281484217943
H  21.701007849109278  18.277816306946423  0.9553626011964721
H  23.01602714427187  18.775574160135513  0.3504153699922109
O  24.7029506070699  16.591390330885293  1.8260936601171505
H  24.686211848895034  15.817642389139754  1.2373581973358667
H  23.864035456391107  17.066400470874807  1.6037534133703715
