15

O  26.001953118262477  18.935631452044998  0.9368065451580871
H  25.698377417306006  18.037393067133777  1.2544988754057609
H  25.290164759241495  19.53141524680951  1.4300829972759719
O  24.061633799443523  19.070279986511935  -0.8896103158010086
H  24.636576794429068  19.192653572068387  0.10011842709094304
H  23.963805933259955  19.9882054954723  -1.198211904686206
O  24.155741382327957  20.22341255087403  2.664031990038321
H  24.176309483796096  19.95871946953807  3.601360254041798
H  23.537158668507367  19.55672400031009  2.2569830151478767
O  22.642179118964155  18.364404190153518  1.2167083541527062
H  21.699389199208245  18.275643383952374  0.9679478677301975
H  23.018766350463885  18.7643603645649  0.34743255110418747
O  24.702744984062132  16.591523627453594  1.8259143645485783
H  24.689603865684475  15.817842123679782  1.237391730965215
H  23.86210707234765  17.064500418555387  1.6060519229958858
