15

O  25.97338672043438  18.94466713698875  0.9384608637104782
H  25.774218145673498  18.026751733216557  1.2474002811485598
H  25.588158810189626  19.499196188297624  1.6644292506810072
O  24.054891550139118  19.076592503372016  -0.8669474210497479
H  24.950480801392732  19.047511606982905  -0.3786921067727358
H  23.97917351668501  19.981636126131924  -1.2086345238284484
O  24.15136465441801  20.21783436228149  2.65846700249042
H  24.249360129050974  19.971020132615482  3.592209936489551
H  23.443835332873157  19.626843999922478  2.301466746213031
O  22.63926772025896  18.36987395246162  1.2065104114618235
H  21.68320270019794  18.253914154011905  1.0938005330674505
H  23.046158412384028  18.652222408858773  0.31760436222395316
O  24.700688753984466  16.592856593136602  1.8241214088628555
H  24.723524033578883  15.819839469080055  1.2377270672586962
H  23.842823231913087  17.045499895361154  1.6290370192510286
