15

O  25.96196016130314  18.94828141096625  0.9391225911314347
H  25.804554437020492  18.02249519964967  1.2445608434456794
H  25.707356430568876  19.48630856489287  1.7581677520430212
O  24.052194650417356  19.07911751011605  -0.8578822631492437
H  25.076042404178196  18.989454820948712  -0.5702163203182073
H  23.985320550055032  19.979008378395772  -1.2128035714853453
O  24.14961396325403  20.215603086844474  2.6562410074712592
H  24.278580387152925  19.975940397846447  3.5885498094686517
H  23.406505998619473  19.654891999767433  2.3192602386390924
O  22.638103160776883  18.372061857384864  1.2024312343854704
H  21.676728100593817  18.24522246203572  1.1441415992023518
H  23.057115237152082  18.607367226576322  0.30567308667185944
O  24.6998662619534  16.593389779409808  1.8234042265885664
H  24.737092100736646  15.820638407240164  1.2378612017760888
H  23.835109695739263  17.03789968608346  1.6382310577530859
