15

O  25.95910352152033  18.949184979460625  0.9392880229866738
H  25.812138509857242  18.021431066257946  1.2438509840199592
H  25.73715583566369  19.48308665904168  1.7816023773835248
O  24.051520425486913  19.07974876180206  -0.8556159736741176
H  25.107432804874563  18.974940624440165  -0.6180973737045752
H  23.98685730839754  19.978351441461736  -1.2138458333995696
O  24.149176290463036  20.21504526798522  2.655684508716469
H  24.285885451678414  19.977170464154188  3.587634777713427
H  23.39717366505605  19.66190399972867  2.323708611745608
O  22.637812020906363  18.372608833615672  1.2014114401163822
H  21.675109450692787  18.24304953904167  1.1567268657360772
H  23.059854443344097  18.59615343100571  0.302690267783836
O  24.699660638945634  16.59352307597811  1.8232249310199942
H  24.740484117526087  15.820838141780191  1.2378947354054368
H  23.833181311695803  17.035999633764035  1.6405295673786
