15

O  25.966963632861862  18.938414042284936  0.9349309092365862
H  25.873212220449204  18.030102096558007  1.3417815856798037
H  25.61322853100987  19.530253900228804  1.650838766088033
O  24.058161900905617  19.07581593624043  -0.8737943863525235
H  24.88262173398061  19.09931149089111  -0.2777955587786174
H  23.935968673888716  19.974309481428197  -1.2226175150260457
O  24.14954850406401  20.22309434179519  2.6587492588573762
H  24.234735566339868  19.948559620068963  3.587088918201093
H  23.538085853257293  19.543326419190038  2.2632809809862113
O  22.632963232300362  18.364112323154288  1.2169767562324045
H  21.687596260827046  18.290455633521205  0.9891052455063215
H  23.083368239558684  18.703557342995822  0.3641303020785091
O  24.700198871172955  16.589675525462688  1.8273229249170542
H  24.689215800153477  15.820113025808128  1.2347145959324197
H  23.929593672920504  17.154459935933122  1.509112009473815
