15

O  25.957861357508257  18.935079573998635  0.9325315911640258
H  25.958833885786106  18.03101866897651  1.4115027749396563
H  25.676729929267275  19.548714325400404  1.6757978406540577
O  24.05960332658483  19.076180388420752  -0.8755301761169161
H  24.87881303446607  19.116390109059445  -0.2739447278625804
H  23.905870179305253  19.967829092499347  -1.2346681512955802
O  24.14752988211202  20.226202598141583  2.6581262030004082
H  24.234724741094773  19.933559335120684  3.5818756068519124
H  23.594775243200264  19.49120623358257  2.2413142167258697
O  22.627798156525635  18.360611565520003  1.223296823406708
H  21.68846345644733  18.314602358662107  0.9294616796360627
H  23.1153844192277  18.72523785024269  0.39455052863739093
O  24.69952302455267  16.587489669559705  1.8294551186048447
H  24.668572650268583  15.820617795164225  1.2325055428817346
H  23.99177892761088  17.233329887882963  1.4226160165791761
