15

O  25.979169803107336  18.941738798186094  0.9384790099001606
H  25.777818760704836  18.028306496996237  1.261455106747972
H  25.49375628144519  19.505804968184442  1.5949692109582345
O  24.056507106211825  19.076713170957944  -0.8696292188451402
H  24.90408678886337  19.07268101978757  -0.30607331367072826
H  23.96732215197307  19.979760057488697  -1.213967133383849
O  24.15252312327383  20.220384853031078  2.6609776188893375
H  24.224495954097137  19.969290174490467  3.5962421003690803
H  23.492050478469377  19.58909103302528  2.2788497695217513
O  22.638921149661947  18.370178851859958  1.2084607124661033
H  21.68663092251705  18.249207624969664  1.0703366766965465
H  23.042917318176613  18.66070748914278  0.3197738972283989
O  24.700996229475887  16.593480176488132  1.8236419321698962
H  24.718476249230434  15.81979610148306  1.2377109014423842
H  23.838193169717243  17.039136694605443  1.63613708058204
