15

O  25.991236367138136  18.947305957715063  0.9413290907634139
H  25.644887779550793  18.027657903441995  1.1558584143201964
H  25.443891468990127  19.481026099771196  1.5842812339119672
O  24.05431809909438  19.07484406375957  -0.8691656136474766
H  24.892778266019388  19.05376850910889  -0.28806444122138264
H  24.01623132611128  19.9915905185718  -1.1904824849739544
O  24.154931495935987  20.21480565820481  2.660410741142624
H  24.23476443366013  19.988560379931037  3.6009910817989073
H  23.386914146742704  19.68231358080996  2.3218590190137887
O  22.646736767699636  18.373447676845714  1.2001232437675955
H  21.685283739172956  18.226064366478795  1.1481547544936783
H  22.997991760441312  18.645742657004178  0.28300969792149094
O  24.702001128827046  16.595504474537314  1.821637075082946
H  24.744264199846526  15.818766974191872  1.2406054040675802
H  23.763766327079495  16.944140064066875  1.7397679905261851
