15

O  25.969997724646397  18.939525531713702  0.9357306819274397
H  25.844671665336904  18.029796572418505  1.3185411892598526
H  25.592061398257403  19.5241004251716  1.6425190745660248
O  24.057681425679213  19.075694452180322  -0.8732157897643926
H  24.88389130048546  19.093618618168335  -0.279079169083963
H  23.946001505416536  19.97646961107115  -1.2186006362695343
O  24.15022137804801  20.222058256346394  2.658956944143032
H  24.2347391747549  19.95355971505172  3.5888266886508196
H  23.51918938994297  19.560699814392528  2.2706032357396584
O  22.634684924225272  18.365279242365716  1.2148700671743033
H  21.687307195620285  18.282406725140902  1.0089864341297412
H  23.072696179669013  18.696330507246866  0.35399022655888185
O  24.700424153379714  16.59040414409702  1.8266121936877906
H  24.696096850115108  15.819944769356097  1.235450946949315
H  23.908865254690376  17.12816995194984  1.5379440071053612
