15

O  25.97461090209351  18.984546045641327  0.9437703481625469
H  25.81297868586313  18.05577211185265  1.2399267513863428
H  25.476551036637993  19.511201487420678  1.626943790504438
O  24.056303008357972  19.080776109656348  -0.8730754513728919
H  24.88753714506259  19.090212977542286  -0.2845227574509421
H  23.9822671841267  19.981300206401936  -1.228833225291447
O  24.143095970609096  20.172147802787705  2.614444064461568
H  24.2162123788728  19.938150851676557  3.55379586554417
H  23.444020182051823  19.57058469799665  2.2475322337651598
O  22.640548008145643  18.422550277075477  1.2267061134462098
H  21.67676488914894  18.37628679534915  1.10666260811384
H  23.04188585704908  18.707871110498747  0.33474623306570767
O  24.715255787380954  16.53613795412979  1.8483453549769853
H  24.70757255928764  15.771096902375886  1.2498438335760114
H  23.873037203060445  17.01188780125191  1.656948072759522
