15

O  25.96563270628053  19.067918136923982  0.9550510444876408
H  25.920836057589394  18.10955633555795  1.2221402541590285
H  25.372533109913977  19.52232446226203  1.6457113715133134
O  24.05642902507392  19.09166832896904  -0.8762663541186755
H  24.887211435187773  19.11755893262686  -0.2877082723528262
H  23.99460155238011  19.978000619205808  -1.2733996758743409
O  24.124807911827286  20.078543408363114  2.524172193384704
H  24.179137136618404  19.87733255502967  3.47330759663251
H  23.407060546155474  19.48611409398995  2.1574567012954793
O  22.641944024436935  18.530090831226428  1.2630183403386297
H  21.657414667446826  18.61234038604745  1.18272782434152
H  23.044297571147247  18.774313331496238  0.35709869919712295
O  24.743567362142866  16.42323386238936  1.8960760649309554
H  24.689237677862916  15.67441070712766  1.2742115007280341
H  23.92575160918134  16.937063403755726  1.7219642182785662
