15

O  25.97161817015585  19.012336742735545  0.9475305802709115
H  25.84893114310522  18.073700186421085  1.233997918977238
H  25.441878394396653  19.51490914570113  1.6331996508407296
O  24.056345013929956  19.084406849427243  -0.8741390856214865
H  24.88742857510432  19.099328295903813  -0.28558459575157014
H  23.98637864021117  19.980200344003226  -1.2436887088190782
O  24.13699995101516  20.140946337979507  2.58435344076928
H  24.203853964788003  19.917878086127597  3.5269664425736167
H  23.431700303419706  19.542427829994416  2.217507056275266
O  22.641013346909407  18.458397128459126  1.2388101890770165
H  21.670314815248236  18.454971325581916  1.1320176801897335
H  23.04268976174847  18.73001851749791  0.34219705510951276
O  24.724692978968257  16.49850325688298  1.8642555916283086
H  24.701460932146066  15.738868170626478  1.2579663892933524
H  23.89060867176741  16.986946335419848  1.67862012126587
