15

O  25.97113983857659  18.953872336196373  0.9290804456810072
H  25.76004756746312  18.04605273370699  1.265176359232199
H  25.523431777255574  19.52736166818598  1.6017553352917722
O  24.080781851108746  19.044568059057177  -0.9003200010027078
H  24.903511032717464  18.99693765914897  -0.29155923215249824
H  23.73104905302192  20.147571549681604  -0.6531901151271992
O  24.15477310763658  20.219511526257058  2.6678550449597944
H  24.240271433898933  19.98913899277536  3.607195324899615
H  23.47097760385399  19.601246263715844  2.3065875708286194
O  22.629896848754747  18.379344567282647  1.2074933056247041
H  21.671890123350625  18.381755151576115  1.0072686599593217
H  23.129712722891693  18.563688124215766  0.31524729589167555
O  24.702944275865836  16.592547735331337  1.8216050488137017
H  24.71126697405425  15.837479852530144  1.2104151569197212
H  23.822369744671757  17.02334015525376  1.6813154789274571
