15

O  25.986175699043027  18.933071256714335  0.9461740482835491
H  25.758163273366115  18.01361534781601  1.2342810140158231
H  25.533118420217267  19.48633185050135  1.6316085908517584
O  24.034425021236668  19.102673947504734  -0.8458444435531486
H  24.873645748695587  19.14729763631203  -0.27525957142000157
H  24.193923063980513  19.83661973361635  -1.6984254532202674
O  24.149988348767483  20.21845086554928  2.6522244044801826
H  24.229842058756503  19.95026756197746  3.582346377867009
H  23.454964352129785  19.623107765585914  2.280109937041227
O  22.648697245551332  18.35938927352654  1.2094892838891518
H  21.699373223688337  18.148486531932342  1.1231734133694917
H  22.961539801874046  18.773282778474876  0.3309679592073996
O  24.69946064367481  16.59262756859437  1.8270355121655986
H  24.72160491195178  15.803404575528761  1.261877638293581
H  23.868289115847325  17.072375417552212  1.5738840187311496
