15

O  25.98529123666265  18.934294849625044  0.9451685422481055
H  25.758274114195352  18.01552342933901  1.2360983872638454
H  25.532548617690107  19.48874536918868  1.6298525169952884
O  24.037151893582084  19.099255954066642  -0.849048888109005
H  24.875402530108637  19.138452931773028  -0.2762183749925014
H  24.166695180982952  19.854911016914304  -1.636941021567734
O  24.150269805171547  20.21851325735562  2.65314385392016
H  24.23045555141194  19.952554116730276  3.583808080633633
H  23.455906308113562  19.621821794887676  2.281667444911074
O  22.647591339857417  18.36056311433572  1.209371873403008
H  21.697756570727293  18.1622082154408  1.1163554866983054
H  22.97143232663979  18.760953681165514  0.3300432143064746
O  24.69966556321546  16.59262287252007  1.8267160731448988
H  24.72099679795781  15.805409003587666  1.2588504335068833
H  23.86558797636641  17.069490990358187  1.5802035163897559
