15

O  25.97202430095697  18.952648743285664  0.9300859517164509
H  25.75993672663388  18.04414465218399  1.263358985984177
H  25.52400157978273  19.52494814949865  1.6035114091482419
O  24.07805497876333  19.04798605249527  -0.8971155564468515
H  24.90175425130441  19.005782363687974  -0.29060042857999846
H  23.758276936019485  20.12928026638365  -0.7146745467797326
O  24.154491651232515  20.21944913445072  2.6669355955198175
H  24.239657941243493  19.98685243802254  3.605733622132991
H  23.470035647870212  19.602532234414085  2.3050300629587728
O  22.631002754448666  18.378170726473464  1.2076107161108482
H  21.673506776311665  18.368033468067658  1.0140865866305082
H  23.11982019812595  18.576017221525124  0.3161720407926005
O  24.70273935632519  16.592552431405633  1.8219244878344016
H  24.711875088048224  15.83547542447124  1.213442361706419
H  23.825070884152673  17.026224582447785  1.6749959812688506
