15

O  25.973793225717728  18.950201557464247  0.9320969637873382
H  25.75971504497541  18.040328489137995  1.2597242394881327
H  25.525141184837047  19.520121112123984  1.6070235568611815
O  24.072601234072497  19.05482203937145  -0.8907066673351386
H  24.89824068847831  19.02347177276598  -0.28868282143499885
H  23.81273270201461  20.092697699787735  -0.8376434100847994
O  24.153928738424383  20.21932435083804  2.6650966966398633
H  24.23843095593262  19.982279328516906  3.6028102165997433
H  23.46815173590266  19.605104175810563  2.3019150472190795
O  22.633214565836496  18.3758230448551  1.207845537083136
H  21.67674008223375  18.340590101050743  1.027722439972881
H  23.10003514859446  18.600675416143844  0.3180215305944504
O  24.70232951724389  16.592561823554227  1.8225633658758011
H  24.713091316036166  15.831466568353429  1.2194967712798142
H  23.830473163114505  17.031993436835837  1.662356985951638
