15

O  25.97998446238038  18.94163640708929  0.9391355060354437
H  25.75893915917076  18.026971918477003  1.247002626751978
H  25.52912980252716  19.50322648131267  1.6193160738564698
O  24.053513127654583  19.078747993438093  -0.8682755554441436
H  24.88594321858695  19.085384704539006  -0.28197119642750024
H  24.003327882997564  19.964658716702044  -1.2680344316525334
O  24.151958543595935  20.21888760819366  2.6586605505600227
H  24.234136507344562  19.966273445247182  3.592578297233376
H  23.461558044016222  19.61410597069824  2.2910124921301533
O  22.640955905693914  18.367606159190817  1.208667410486144
H  21.68805665296104  18.244538316491543  1.0754479266711865
H  23.030787475234256  18.686979097309358  0.32449474490092495
O  24.70089508045935  16.592594696074297  1.8247994390206999
H  24.717348113993975  15.817435571941095  1.2406872047866977
H  23.849381139480915  17.052184427194025  1.6181205023413938
