15

O  25.974677688098105  18.94897796455354  0.9331024698227818
H  25.759604204146175  18.038420407614996  1.2579068662401105
H  25.525710987364207  19.517707593436654  1.6087796307176512
O  24.06987436172708  19.058240032809543  -0.8875022227792821
H  24.896483907065257  19.032316477304985  -0.287724017862499
H  23.839960585012175  20.07440641648978  -0.8991278417373328
O  24.15364728202032  20.219261959031698  2.664177247199886
H  24.23781746327718  19.97999277376409  3.6013485138331194
H  23.467209779918882  19.6063901465088  2.300357539349233
O  22.634320471530415  18.374649204045916  1.2079629475692801
H  21.678356735194793  18.326868417542286  1.0345403666440676
H  23.09014262382872  18.613004513453202  0.3189462754953753
O  24.702124597703243  16.592566519628523  1.8228828048965011
H  24.71369943003014  15.829462140294526  1.2225239760665119
H  23.83317430259542  17.034877864029866  1.6560374882930318
