15

O  25.983522311901893  18.93674203544646  0.9431575301772183
H  25.758495795853822  18.019339592385005  1.2397331337598896
H  25.53140901263579  19.493572406563345  1.626340369282349
O  24.042605638272917  19.09241996719046  -0.8554577772207179
H  24.87891609293474  19.120763522695018  -0.278135982137501
H  24.112239414987823  19.89149358351022  -1.5139721582626673
O  24.15083271797968  20.2186380409683  2.654982752800114
H  24.231682536722815  19.95712722623591  3.586731486166881
H  23.457790220081115  19.619249853491198  2.284782460650767
O  22.645379528469583  18.362910795954086  1.20913705243072
H  21.69452326480521  18.189651582457714  1.1027196333559324
H  22.991217376171278  18.736295486546798  0.32819372450462475
O  24.700075402296758  16.59261348037148  1.826077195103499
H  24.719780569969863  15.809417859705475  1.252796023933488
H  23.860185697404578  17.06372213597013  1.5928425117069684
