15

O  25.979881642742274  18.943723138664478  0.9383578909271997
H  25.76155199516363  18.02874713232623  1.2472605663877894
H  25.53574583827823  19.50227705333644  1.625016562670779
O  24.055641476855246  19.075518801140795  -0.8756501084947601
H  24.885412348696455  19.07936159084376  -0.28510158879952335
H  23.973803133197663  19.98295880394259  -1.2108559974971826
O  24.155359982666006  20.213439036242022  2.659900006998221
H  24.197575710605904  20.02267994449408  3.6135811832672635
H  23.462730373268073  19.604476057202376  2.303967796007258
O  22.639472232188776  18.369029854532013  1.2092785913080177
H  21.687828169094768  18.247166485880257  1.066391245719551
H  23.03970788133104  18.675048047585836  0.32443562792020886
O  24.700299672565208  16.593555307953082  1.8258584703929974
H  24.712857779191538  15.829161999008878  1.2273107017805824
H  23.848261367958287  17.056645320526854  1.629850414433775
