15

O  25.97441014354634  18.937681168013125  0.936762654436802
H  25.744038029018217  18.02967720604262  1.2581766016732638
H  25.485444970330605  19.525817679981365  1.5728206239753255
O  24.05983113886852  19.07419719315523  -0.8464593490314397
H  24.901425907821263  19.059610454937456  -0.26990046720286
H  23.989881200814004  19.982897176344444  -1.1807140150169049
O  24.13352010400396  20.252015782547854  2.657659958010675
H  24.45779573636456  19.643840333035527  3.476792900396419
H  23.461117760391545  19.662883656785727  2.224183223956453
O  22.642116606867326  18.36728087280794  1.2041784521518943
H  21.678110985431392  18.32482108471845  1.082062525682693
H  23.046512712013747  18.672261714484993  0.31837623247874713
O  24.705901964608756  16.586798152281517  1.8162091776420157
H  24.740033324850792  15.761108005946735  1.299755789316506
H  23.837191792250277  17.005228076838858  1.59197751339735
