15

O  25.98144492822683  18.945449415993437  0.9388136727815991
H  25.76655598549089  18.02848139697869  1.2441416991633683
H  25.550117514834696  19.495551160009317  1.6399296880123373
O  24.054444430565738  19.075896403422387  -0.8839903254842802
H  24.88083704608937  19.085004772531274  -0.28944476639857003
H  23.969209399592994  19.982976411827774  -1.2194679924915477
O  24.161599947998017  20.20241710872607  2.6605400209946626
H  24.123227131817718  20.130919833482235  3.6526635498017908
H  23.463191119804225  19.587788171607134  2.3267633880217735
O  22.638716696566334  18.369529563596032  1.210735773924053
H  21.690604507284306  18.224979457640774  1.0619137371586533
H  23.037763643993124  18.675844142757505  0.32616688376062647
O  24.69869901769562  16.595485923859243  1.8286154111789923
H  24.705093337574606  15.848605997026633  1.2066121053417471
H  23.85142410387486  17.07133596158057  1.640671243301325
