15

O  25.972065215319507  18.935091752019687  0.9360789816552029
H  25.736532043527326  18.03007580906393  1.2628549025098956
H  25.463887455495907  19.53590651997205  1.5504509359629883
O  24.061626708302782  19.07363078973284  -0.8339490235471595
H  24.908288861731894  19.051145682406187  -0.26338570080428997
H  23.99677180122101  19.98287076451667  -1.1677960225253572
O  24.124160156005942  20.268548673821783  2.656699937016013
H  24.56931860454684  19.481480499553292  3.418169350594628
H  23.460426640587322  19.687915485178593  2.18998983593468
O  22.64324991030099  18.366531309211904  1.2019926782278414
H  21.673946478147087  18.358101627077676  1.0887787885240396
H  23.04942906802062  18.671067571727487  0.3157793487181207
O  24.708302946913136  16.583902228422275  1.8120737664630233
H  24.75167998727619  15.731942008920104  1.3308036839747588
H  23.832447688375417  16.983192115258287  1.575746270096025
