15

O  25.9848127048893  18.92524231299352  0.9257857175076649
H  25.759680921552228  18.01366674818361  1.2399643177544872
H  25.540198118906673  19.490949402385347  1.6064225335842444
O  24.04817718861201  19.122005451874518  -0.8664834101200394
H  24.885194789863892  19.09322605039276  -0.28584185955291547
H  23.964518941662956  20.047748382696664  -1.1518613088890797
O  24.153429522739426  20.207877592369435  2.6388617671390393
H  24.234946988953972  19.968375059669583  3.5763244881167924
H  23.46445387581371  19.597200962336494  2.278392856978653
O  22.640868149138477  18.347089985019128  1.1958623476845052
H  21.687973217560316  18.235770601903514  1.0534032798843231
H  23.041335867356953  18.673067944987466  0.31726542589783463
O  24.701085184229512  16.597528810890076  1.8608394873559801
H  24.716754515361128  15.79285664111934  1.3157124518395282
H  23.846638440774143  17.04459130042029  1.6377652177860194
