15

O  25.987669057333953  18.916433469490283  0.9196135762614973
H  25.759996382328342  18.006060122275414  1.235536476631731
H  25.54601717836001  19.48360410357802  1.6008538003763666
O  24.04414578291801  19.145343177811778  -0.863985115180059
H  24.88394218479584  19.10156907558914  -0.28729778932937317
H  23.95872841249443  20.080147574045  -1.1245169633336194
O  24.154024284109138  20.202341388554153  2.6285026507085587
H  24.23504548343096  19.968282589504376  3.567466732175189
H  23.465430813720566  19.58939144350474  2.2713042854679797
O  22.641377223707714  18.33624497752869  1.1895185215267579
H  21.688739826340477  18.224525902855273  1.0457899198264846
H  23.041663801035433  18.6722769174812  0.3141131388467519
O  24.70107777634427  16.599998216335113  1.87901923103397
H  24.716761773041693  15.779564961679009  1.3547386777592922
H  23.846617661161215  17.042236950630436  1.6444278266790289
