15

O  25.970530942666045  18.969286530509716  0.9566464237385027
H  25.758103617671654  18.051699877724587  1.2621035233682691
H  25.511102821639987  19.52767589642198  1.6342661996236336
O  24.068334217081986  19.005316822188224  -0.878974884819941
H  24.89145781520416  19.051510924410863  -0.27856221067062686
H  23.993471587505567  19.885752425954998  -1.2885830366663806
O  24.15045571589086  20.235558611445846  2.6906573492914414
H  24.234454516569038  19.968837410495624  3.6206132678248113
H  23.45956918627943  19.636248556495257  2.3138357145320203
O  22.638322776292284  18.401315022471312  1.2275814784732422
H  21.684140173659525  18.291994097144727  1.0914700801735153
H  23.039696198964563  18.6770230825188  0.33302686115324814
O  24.70112222365573  16.58518178366489  1.7699407689660303
H  24.71671822695831  15.859315038320991  1.1205813222407077
H  23.846742338838784  17.056363049369562  1.6044521733209713
