15

O  25.959105532887442  19.00452190452267  0.9813349887231729
H  25.7568417745672  18.08212638135737  1.2798148878592948
H  25.487826583826635  19.557057091651284  1.656541132455145
O  24.084459839857967  18.911965918439186  -0.8889680645798622
H  24.896468235476377  19.018138823625346  -0.272738491564796
H  24.016633704179657  19.756155660561664  -1.3979604188882213
O  24.14807667041201  20.257703426706975  2.732093815013363
H  24.23406053866109  19.969207291156454  3.6560442915912263
H  23.45566143465201  19.667486631822268  2.342190000574714
O  22.636286478015332  18.44469505243306  1.2529567831042319
H  21.681073738538892  18.3369728933377  1.121923520404869
H  23.03838446425065  18.680187192543872  0.34563600935757893
O  24.701151855196706  16.57530416188474  1.6972217942540702
H  24.716689196236057  15.912481756082315  0.9644764185616512
H  23.846825457290493  17.06578044852898  1.5778017377489328
