15

O  25.964818237776743  18.986904217516194  0.9689907062308378
H  25.75747269611943  18.06691312954098  1.270959205613782
H  25.499464702733313  19.54236649403663  1.6454036660393891
O  24.076397028469977  18.958641370313703  -0.8839714746999016
H  24.893963025340266  19.034824874018103  -0.2756503511177114
H  24.00505264584261  19.820954043258332  -1.343271727777301
O  24.149266193151433  20.24663101907641  2.711375582152402
H  24.234257527615064  19.969022350826037  3.638328779708019
H  23.45761531046572  19.651867594158762  2.328012857553367
O  22.637304627153807  18.423005037452185  1.2402691307887372
H  21.68260695609921  18.314483495241213  1.1066968002891922
H  23.03904033160761  18.67860513753134  0.33933143525541354
O  24.701137039426218  16.580242972774816  1.7335812816100502
H  24.716703711597184  15.885898397201654  1.0425288704011795
H  23.846783898064636  17.06107174894927  1.591126955534952
