15

O  25.97313154769853  18.94426500729376  0.9386537210902014
H  25.770800500176314  18.01793935321296  1.2236321240198236
H  25.54561225951794  19.483553237568508  1.6519884984985749
O  24.063491166789674  19.079145040135696  -0.8766313340701372
H  24.886458965945494  19.095917279966923  -0.2756827218583604
H  23.967501238433265  19.984147148260096  -1.2146362147723948
O  24.162730719689332  20.22254503565941  2.6608988796231228
H  24.094235883558028  19.869489168376315  3.581985574767155
H  23.46505992973722  19.70223540004581  2.164598901838759
O  22.637465707669076  18.35709615527862  1.2158293389804482
H  21.676435858168674  18.272952620558506  1.1062052901166988
H  23.02619199591193  18.63663931453773  0.31697287368512667
O  24.70743621949101  16.593736536188235  1.8225463551891266
H  24.59694297464845  15.835571577057783  1.2118888819221747
H  23.860387499586455  17.10592786781538  1.7185287457213794
