15

O  25.9835763392261  18.94180624452968  0.9377372091823489
H  25.75023712486776  18.03708548509028  1.2677109069851324
H  25.51577080536154  19.52220507182362  1.591738626126069
O  24.05080162490774  19.072468719898232  -0.8676164994473972
H  24.88863077554088  19.06200704002481  -0.2883654586062297
H  23.982549071175047  19.982052138804924  -1.200485338920704
O  24.144371960233  20.21625372325544  2.658590840282658
H  24.340135587331474  20.042863123717765  3.6030808189246337
H  23.460580052697082  19.54575844996564  2.3885483236209306
O  22.641638219248193  18.377542883541036  1.203090495764664
H  21.693943106373496  18.24724053458112  1.0404485324124757
H  23.05154600306605  18.7031580140967  0.3285178447361551
O  24.696347835381744  16.591730097858825  1.825930233608155
H  24.806587769013664  15.807341317206664  1.256988338558369
H  23.836399375310158  17.00682909913846  1.5538734407089656
