15

O  25.992529017678308  18.93969873358904  0.9369516275470469
H  25.732611374603284  18.053496455270842  1.3054927209553973
H  25.49019241608463  19.55533521547086  1.540095878378207
O  24.039924874723226  19.06674615969469  -0.8598894983421915
H  24.890492326622635  19.032941120074426  -0.2992363758186891
H  23.995447213525146  19.98025641641478  -1.1883560167621119
O  24.128635880698997  20.21086116976632  2.6566125208479736
H  24.55090676199443  20.191469371153293  3.621162456773901
H  23.45674015809125  19.411635349896923  2.580504970862792
O  22.645214657744578  18.39506865062311  1.1921714872939917
H  21.70894931912049  18.225201603743358  0.9840855972374275
H  23.073278009198155  18.760174042290107  0.33841353420846515
O  24.686843506145227  16.590010293576476  1.8288307008244653
H  24.986283307040992  15.78314395161999  1.295645015675107
H  23.815838125930476  16.921887297415385  1.412740322126897
