15

O  25.988718475021496  18.937592161115077  0.933321512107554
H  25.74039712086372  18.043060523027936  1.2865840682180187
H  25.545208252865205  19.535717514728223  1.5877374379836018
O  24.054326863338332  19.080589473543824  -0.8767993200390571
H  24.88781110497795  19.07364011629778  -0.29286583942705724
H  23.979426059181264  19.989707094561815  -1.2091367119333578
O  24.146044146445973  20.216439948197483  2.6578613670932754
H  24.26946536344576  19.912547016337122  3.5745743057223165
H  23.455606283577563  19.615742956566745  2.2843247880373267
O  22.639350774660347  18.36966063284421  1.2110706298039082
H  21.690773406270022  18.22025039293698  1.0684509345037356
H  23.034631045612517  18.67517452731352  0.3248672490197663
O  24.69328487836041  16.58475766773983  1.8462412088916678
H  24.79128922239875  15.984595605700287  1.0318680347592124
H  23.852590240919913  17.076901873585307  1.6640469463388863
