15

O  25.964672287467753  18.950761758327385  0.945342731838669
H  25.78702931870442  18.0076092154581  1.1921738976729719
H  25.503587620702188  19.460523727907667  1.6622938430245977
O  24.059109704992498  19.067440789684266  -0.8635010199414144
H  24.887533342533075  19.08088982555333  -0.2680262408594142
H  23.9711109112281  19.972814358157276  -1.2026699320999634
O  24.16153378033104  20.222715077703775  2.6621579493600875
H  24.182676954831358  20.05257947549432  3.623238541416526
H  23.47284057463365  19.608435565149883  2.3049378179440096
O  22.640598838009478  18.36745905073369  1.204769055294138
H  21.67993989059497  18.315274410594533  1.0688985982443964
H  23.04975343158122  18.673863209029722  0.3216241264703506
O  24.71282268245939  16.604338498390263  1.7918381866624984
H  24.604916166401882  15.57170659144957  1.5463479478611815
H  23.83781463862013  17.007897189622035  1.5650295804916707
