15

O  25.97764739699375  18.941103979022433  0.9389261837138757
H  25.62249390282539  18.090090375344026  1.350677024056319
H  25.640141736298187  19.650851068174266  1.5645368881830646
O  24.05592707741491  19.0763530174035  -0.8705696001910551
H  24.886186050480337  19.067423370204057  -0.2807857532878653
H  23.993633567093482  19.9832998671868  -1.2115109465783351
O  24.150792831905136  20.214825512508824  2.6581115005143463
H  24.240498393026165  19.973095395716033  3.593862174214962
H  23.507340507368216  19.5625125924873  2.281516891371491
O  22.638570578172917  18.373993776669383  1.206710007534909
H  21.690527667436154  18.21913543916985  1.0673789877075204
H  23.035501513480913  18.66938733530217  0.31653059364197056
O  24.708515526809727  16.58817844051133  1.8179492501542502
H  24.64507723374334  15.787322522758762  1.265727476194712
H  23.831402769826724  17.038282172598997  1.6989478521317132
