15

O  25.982368356764063  18.946811047199525  0.9363385866437797
H  26.06630121864287  17.89115665547595  1.0196416958732823
H  25.27750109332908  19.178915096607906  1.7368620015881049
O  24.056944075816446  19.073028210842132  -0.8735283995701261
H  24.89110638641924  19.097052417040878  -0.2877545551023031
H  23.936649474039662  19.982162798829695  -1.1953878701987457
O  24.155496128213443  20.22823009685514  2.6628841238427206
H  24.221816115691123  19.958355359638926  3.594440108016335
H  23.361608858421512  19.726011666903577  2.317439494414145
O  22.642728699110936  18.35704900249389  1.2126899830464546
H  21.677242748268657  18.346290261867836  1.071444777658079
H  23.05233159466794  18.68649099557012  0.3394086643055664
O  24.684415064678113  16.602516008849506  1.8391741871529372
H  24.877981224077487  15.891704323792787  1.174508178561898
H  23.881053767889867  17.07409011165225  1.4567973327036459
