15

O  25.976921095490624  18.94022596853365  0.9393242755708135
H  25.554215854238084  18.120695563016035  1.4016055360844786
H  25.69593260444728  19.723456602261397  1.538025332274597
O  24.055770616122366  19.076864526105247  -0.8701144002865827
H  24.885429075720506  19.062865055306084  -0.279713629931798
H  24.002400350640222  19.9834748007802  -1.2139914198675028
O  24.150069247857704  20.21276326876324  2.65737725077152
H  24.24337258953925  19.97536309357405  3.5937732613224433
H  23.529760761052323  19.53735888873095  2.2759903370572365
O  22.637930867259374  18.376600665004073  1.2057900113023636
H  21.69257150115423  18.199573158754777  1.0667534815612807
H  23.03291227022137  18.666756002953253  0.31301089046295577
O  24.71222329021459  16.585972660767  1.8146838752313754
H  24.60924585061501  15.771263784138142  1.279761214292068
H  23.823764154740086  17.032773258898498  1.7362017781975696
