15

O  25.979129329688565  18.942798479022713  0.9380876760248775
H  25.7590955608525  18.029265341023102  1.248728197322144
H  25.5280729928384  19.506185106493643  1.6183859707777377
O  24.056218436511127  19.075476251325913  -0.8715431446266129
H  24.88778966734591  19.07660166089521  -0.2828795525531914
H  23.97634994962876  19.98056713563066  -1.2056353868276652
O  24.153073485629157  20.218245141565383  2.66404636277276
H  24.22723453717084  19.98559996481803  3.524138902274681
H  23.456904628695966  19.607168362727823  2.2917406549312145
O  22.640361674545645  18.368841147809263  1.2085654530153465
H  21.67832042391083  18.257234454713334  1.0675676980287445
H  23.040586078342017  18.674453138514544  0.32421154998739504
O  24.70100981833733  16.593249834201497  1.8249292758461102
H  24.717284535513897  15.809092187704294  1.2300588486334916
H  23.847520950911477  17.04927202251646  1.6249069785611023
