15

O  25.979070670311433  18.942921520977286  0.9381723239751225
H  25.759004439147496  18.0284946589769  1.248911802677856
H  25.529047007161598  19.505094893506357  1.6167340292222625
O  24.05626156348887  19.07518374867409  -0.8714168553733872
H  24.887610332654088  19.076478339104792  -0.2829804474468086
H  23.97585005037124  19.985332864369337  -1.2074646131723348
O  24.15140651437084  20.219654858434616  2.65511363722724
H  24.242265462829156  19.95152003518197  3.6639410977253193
H  23.46809537130403  19.618471637272176  2.2933993450687855
O  22.639338325454354  18.36871885219074  1.2085345469846536
H  21.694559576089173  18.259285545286666  1.0696923019712554
H  23.04077392165798  18.674846861485456  0.322928450012605
O  24.70119018166267  16.591930165798505  1.82403072415389
H  24.716195464486105  15.829787812295706  1.2452611513665084
H  23.84583904908852  17.04932797748354  1.6239730214388979
