15

O  25.978865362491472  18.943352167818283  0.9384685918009801
H  25.758685513179987  18.025797271815197  1.249554421422849
H  25.53245605729278  19.50127914805086  1.6109522337780993
O  24.056412507910974  19.074159989392708  -0.8709748429870977
H  24.8869826612327  19.076046712838334  -0.28333357957446864
H  23.97410040296993  20.00201291495471  -1.2138669053786788
O  24.145572114966736  20.22458886747693  2.623849097817918
H  24.294873702633268  19.83224028145578  4.153248781802552
H  23.507262970432254  19.658033098177413  2.299204760550283
O  22.635756603634846  18.368290817525896  1.2084263758772285
H  21.75139660871336  18.26646436229332  1.0771284157700436
H  23.041431373263837  18.676224891883642  0.3184376001008397
O  24.701821453301356  16.58731132638804  1.8208857932311198
H  24.712383715888834  15.902222498365644  1.2984692109320681
H  23.83995239270817  17.049523819868323  1.6207041715111825
