15

O  25.978894692180038  18.943290646840996  0.9384262678258576
H  25.75873107403249  18.026182612838298  1.2494626187449929
H  25.53196905013118  19.501824254544502  1.6117782045558369
O  24.056390944422102  19.07430624071862  -0.8710379876137104
H  24.88707232857861  19.076108373733543  -0.2832831321276601
H  23.974350352598687  19.99963005058537  -1.212952292206344
O  24.146405600595894  20.22388400904231  2.628315460590678
H  24.28735823980411  19.849280246273807  4.083347684077233
H  23.501667599128222  19.652381460905236  2.2983754154814977
O  22.63626827818049  18.368351965335158  1.208441828892575
H  21.743277032624192  18.265438817006658  1.0760661137987881
H  23.04133745160586  18.676028030398186  0.31907915008823473
O  24.701731271638685  16.587971160589536  1.8213350690772299
H  24.71292825140273  15.891874686069938  1.2908680595655595
H  23.84079334361965  17.049495842384783  1.6211711500722847
