15

O  25.975191786288615  18.938544306677603  0.9369905453640016
H  25.746540024181847  18.02954433836885  1.2566171680610532
H  25.492630808608837  19.522454733317804  1.5802771866461047
O  24.059232615723765  19.074385994296023  -0.8506294575261998
H  24.89913825651772  19.062432045781215  -0.2720720560023833
H  23.98758433401167  19.982905980287036  -1.1850200125140873
O  24.136640086669967  20.24650481878988  2.657979965008896
H  24.420621446970465  19.697960277529607  3.4963340836636823
H  23.461348133659623  19.654539713988108  2.235581019963711
O  22.641738839056107  18.367530727339947  1.2049070434599118
H  21.67949915452616  18.313727570598708  1.0798237714022443
H  23.04554059334479  18.672659762070825  0.3192418603989559
O  24.705101637173964  16.587763460234598  1.817587648035013
H  24.736151104042328  15.770830004955613  1.2894064910970882
H  23.838773160208564  17.012573397365713  1.5973879278311252
