15

O  25.97362850080406  18.936818029348647  0.9365347635096022
H  25.741536033854587  18.02981007371639  1.2597360352854745
H  25.478259132052372  19.529180626644926  1.5653640613045465
O  24.060429662013274  19.07400839201443  -0.8422892405366796
H  24.903713559124807  19.0567888640937  -0.26772887840333665
H  23.99217806761634  19.982888372401852  -1.1764080175197222
O  24.130400121337956  20.25752674630583  2.6573399510124545
H  24.494970025758654  19.589720388541448  3.457251717129155
H  23.46088738712347  19.67122759958335  2.2127854279491954
O  22.64249437467855  18.367031018275927  1.2034498608438766
H  21.676722816336625  18.33591459883819  1.084301279963142
H  23.047484830682702  18.671863666899156  0.3175106045585383
O  24.706702292043552  16.585832844328436  1.8148307072490182
H  24.74391554565926  15.751386006937858  1.3101050875359235
H  23.83561042429199  16.997882756312002  1.586567098963575
