15

O  25.97578497356916  18.980167663834926  0.9436594959617977
H  25.674609011395443  17.620923020598173  1.3822342516847055
H  25.66691613746187  19.32611863696588  1.3981910667964117
O  24.05665468526927  19.075523813450165  -0.8711325139582715
H  24.880102203358273  19.075773647818707  -0.2891740883650199
H  23.976372444956336  19.981792160656614  -1.2067225918883775
O  24.164072900546874  20.229257703454675  2.6646107452856005
H  24.243851915825942  19.967052709075855  3.619419531053956
H  23.27297727071469  19.45161340305831  2.1864010277047887
O  22.63981110406418  18.368779527312956  1.2086102322535142
H  21.687229764787766  18.254581131367335  1.0679340831684094
H  23.0412926659381  18.673463542604544  0.3222335305551073
O  24.685605358674376  16.599799658404176  1.820664329278335
H  24.706924400347813  15.841904652039615  1.2501361686794297
H  24.093686493595413  16.9106357003361  1.6736450075183702
