15

O  25.97946833627009  18.93871470401834  0.9375156115598002
H  25.76843233206717  18.07420855326687  1.233996194257255
H  25.51318709583757  19.525586818114903  1.64193432591151
O  24.05619392385897  19.075308465172206  -0.8715186095601921
H  24.888544199626857  19.076625150242368  -0.2822362124038867
H  23.976069728338185  19.98307864881593  -1.2065308231235137
O  24.15092523327257  20.217804699616146  2.6590210283016
H  24.23373867601934  19.96872747676935  3.591220052105116
H  23.4835580810317  19.63073184410463  2.3043665524772456
O  22.639854321770645  18.368780052520783  1.2085433075273873
H  21.686352248356915  18.258668763181408  1.068707324092399
H  23.040611926006875  18.674781828599496  0.3237184966049881
O  24.702821626813957  16.591788926843982  1.8249039634135185
H  24.717830622183577  15.816943927551154  1.236273759035619
H  23.819234834044952  17.064707144407098  1.6189727769424034
