15

O  25.979836672540184  18.934569408036683  0.9369012231196006
H  25.777814664134343  18.11953710653374  1.21917238851451
H  25.49781419167514  19.545533636229806  1.6663086518230197
O  24.056147847717938  19.075286930344408  -0.8715572191203841
H  24.889388399253715  19.076710300484734  -0.28154242480777336
H  23.976039456676368  19.98320729763186  -1.2065116462470273
O  24.149610466545138  20.216659399232295  2.6584620566032
H  24.232727352038676  19.968894953538697  3.588400104210232
H  23.5046161620634  19.648643688209262  2.3161631049544913
O  22.63985864354129  18.368780105041566  1.2085366150547747
H  21.686264496713832  18.259077526362816  1.0687846481847978
H  23.04054385201375  18.67491365719899  0.3238669932099762
O  24.704543253627918  16.590987853687963  1.8253279268270368
H  24.718921244367156  15.814447855102308  1.2348875180712378
H  23.79178966808991  17.080114288814197  1.6135055538848067
