15

O  25.978731663729906  18.947005295981658  0.9387443884401998
H  25.749667667932826  17.98355144673313  1.263643805742745
H  25.54393290416243  19.485693181885097  1.5931856740884902
O  24.056286076141028  19.075351534827796  -0.871441390439808
H  24.88685580037314  19.076454849757635  -0.28362378759611334
H  23.976130271661813  19.982821351184068  -1.2065691768764863
O  24.153554766727428  20.220095300383853  2.6601389716984003
H  24.235761323980658  19.96839252323065  3.596859947894884
H  23.441441918968298  19.594908155895368  2.2807734475227543
O  22.639845678229353  18.36877994747922  1.2085566924726128
H  21.686527751643087  18.257851236818592  1.068552675907601
H  23.04074807399312  18.674518171400504  0.32342150339501197
O  24.699378373186043  16.59339107315602  1.8240560365864817
H  24.715649377816426  15.821936072448846  1.239046240964381
H  23.874125165955046  17.0338928555929  1.6299072230575968
