15

O  25.976195761027327  18.957836981190688  0.9426919827447425
H  25.73248149235134  17.897161339804804  1.2954221149155827
H  25.60008093478043  19.404837403322006  1.5005490009567564
O  24.056094338794015  19.075314212357664  -0.8715842732480962
H  24.890207874032924  19.076887764041174  -0.2808784646726739
H  23.976027676198136  19.98324326531827  -1.2066996308980005
O  24.143746174880288  20.210864547275474  2.655898515353486
H  24.229020919260513  19.971035706546072  3.5672906498685935
H  23.605337896173474  19.733042777931853  2.3703102288889224
O  22.639862463856584  18.36922019312223  1.2085330186766647
H  21.685734368140377  18.26126038835234  1.069200554113953
H  23.03960018164784  18.67362866473846  0.32556645529490935
O  24.712547340586887  16.58714151006866  1.8279494739097433
H  24.72232573602526  15.795482425351437  1.223768619903359
H  23.65971480624752  17.150822573114294  1.5861676576700605
