15

O  25.97677660882186  18.95484158495255  0.941779586195794
H  25.737795193881073  17.92350507184384  1.2861016919324662
H  25.585776747824344  19.424997922657603  1.5239512007654052
O  24.05612347103521  19.075317369886132  -0.871563418598477
H  24.88970629922634  19.07681821123294  -0.28128877173813915
H  23.97604214095851  19.983184612254615  -1.2066697047184003
O  24.14544493990423  20.212481637820378  2.656634812282789
H  24.23016673540841  19.97054056523686  3.572640519894875
H  23.576770316938777  19.708998222345482  2.354762183111138
O  22.63985997108527  18.369132154497787  1.2085364149413318
H  21.685875494512302  18.26066031068187  1.0690864432911624
H  23.039816145318273  18.673832931790766  0.32516716423592745
O  24.71025787246951  16.588231208054925  1.8272555791277947
H  24.72120858882021  15.80027394028115  1.2265468959226873
H  23.69710784499802  17.130518058491436  1.5938221261360486
