15

O  25.974453217643724  18.9668231699051  0.945429172391588
H  25.716540387762148  17.818130143687682  1.3233833838649323
H  25.642993495648685  19.344355845315206  1.4303424015308104
O  24.05600694207042  19.075304739772264  -0.8716468371969538
H  24.891712598452678  19.07709642246588  -0.27964754347627824
H  23.975984281917018  19.983419224509234  -1.2067894094368006
O  24.13864987980846  20.206013275640757  2.653689624565578
H  24.225583470816826  19.97252113047372  3.55124103978975
H  23.69104063387756  19.805176444690964  2.416954366222276
O  22.639869942170538  18.36948430899557  1.2085228298826636
H  21.6853109890246  18.263060621363746  1.069542886582325
H  23.038952290636548  18.673015863581533  0.32676432847185494
O  24.719415744939017  16.58387241610985  1.8300311582555893
H  24.725677177640417  15.7811078805623  1.2154337918453746
H  23.54753568999604  17.21173611698287  1.5632042522720968
