15

O  25.982585086767205  18.924887622571173  0.932655620706309
H  25.790932209178386  18.18694239223424  1.1928974621013009
H  25.442734878263483  19.626603116013595  1.7579731988518925
O  24.056414793447182  19.075348945170806  -0.8713548721022847
H  24.88469055116049  19.076122683150594  -0.2853918423927913
H  23.976186788562234  19.982598081618075  -1.2063704429223996
O  24.162432590143652  20.228652543269433  2.6639977815758167
H  24.241624896887377  19.965589152144712  3.626139220157688
H  23.291094524591827  19.468552666481774  2.199281725333293
O  22.639835043372095  18.368251768253323  1.2085703775880023
H  21.68728675823155  18.25465953397719  1.0679453350632562
H  23.041975782022586  18.67587560231385  0.32117425364610885
O  24.687363191295738  16.599128187917614  1.8203166313083083
H  24.71003711676969  15.848189089578275  1.254329656115969
H  24.07103823250297  16.927472912262846  1.6703668107959275
