15

O  25.976795591685292  18.94228084161826  0.9390792837156514
H  25.75993328110338  18.061851977141185  1.2396808846293037
H  25.538549654850485  19.481585443090864  1.5939363610226012
O  24.072200056022474  19.07562845505482  -0.8592986721669114
H  24.629298614146002  19.075719545107884  -0.4451221364424182
H  23.976129694980457  19.96544975875592  -1.1937797656790443
O  24.151040341313752  20.217326655133945  2.658610152949074
H  24.23390192883645  19.96877604919276  3.5916715161686987
H  23.483893013787913  19.63125313064311  2.301047842464865
O  22.64787312361599  18.375093977905554  1.189904473310142
H  21.70398074363335  18.26058999019686  1.0697344902991723
H  22.92660116930426  18.58198592649244  0.6056212207458886
O  24.69930904011376  16.594016100923646  1.8238146593737101
H  24.715652999530583  15.821346980157086  1.2386527552955553
H  23.874664356056638  17.035859158562328  1.6298441511395703
