15

O  25.980252204157352  18.94314957919087  0.9376553581421744
H  25.758608359448306  18.012394011429407  1.2533895576853482
H  25.523565172574756  19.517667278454567  1.6293718194886995
O  24.04825997198876  19.075180772472592  -0.8775706639165444
H  25.016900692926995  19.07695022744606  -0.20183393177879091
H  23.97608515250977  19.99170012062204  -1.2129351171604779
O  24.152839829343122  20.219761672433027  2.660064923525463
H  24.23517403558177  19.96845197540362  3.5952242419156506
H  23.45180349310604  19.603603434678444  2.2883310787675675
O  22.635838438192003  18.365623011047223  1.217872763344929
H  21.677669628183327  18.25709500490157  1.068077754850414
H  23.097719415347868  18.720982036753778  0.18254438962705571
O  24.70199547994312  16.59187694953818  1.824812670313145
H  24.71728350023471  15.818486509921456  1.2371636223522224
H  23.83268782197168  17.056020420718834  1.621737924430215
