15

O  25.981404408314706  18.94343915838174  0.9371807162843486
H  25.758166718896618  17.995908022858817  1.2579591153706964
H  25.518570345149513  19.529694556909135  1.641183638977399
O  24.040279943977524  19.075031544945183  -0.8836613278330887
H  25.146101385853996  19.07736045489212  -0.12073786355758181
H  23.97607030501954  20.000450241244078  -1.2193202343209557
O  24.153439658686246  20.220573344866054  2.660549847050926
H  24.235598071163547  19.968343950807242  3.5964084838313015
H  23.441106986212084  19.59438686935689  2.284092157535135
O  22.631826876384007  18.36246602209445  1.227195526689858
H  21.668899256366654  18.25593000980314  1.0675255097008276
H  23.154758830695737  18.76731407350756  0.041518779254111404
O  24.70289095988624  16.591163899076356  1.82514534062629
H  24.71782700046942  15.817533019842914  1.2366672447044447
H  23.81869564394336  17.06274084143767  1.61903584886043
