15

O  25.97948406805245  18.942956526396955  0.9379717860473915
H  25.758902786482768  18.02338467047647  1.2503431858951162
H  25.526895057524918  19.50964909281819  1.6214972731628998
O  24.053579990662918  19.075280257490864  -0.8735102213055148
H  24.930766897642332  19.07667674248202  -0.25589797725959695
H  23.97609505083659  19.985866706874013  -1.208678372386826
O  24.152439943114373  20.219220557477676  2.659741641175154
H  24.234891345193923  19.968523991801206  3.594434747305217
H  23.458934497702014  19.60974781155948  2.291157026255856
O  22.638512812730667  18.367727670349076  1.2116575877816431
H  21.683516542727777  18.257871668300524  1.0684459182834714
H  23.059693138449287  18.690094012251258  0.2765614632090186
O  24.70139849331437  16.592352316512727  1.8245908901043817
H  24.716921166744903  15.819122169973818  1.237494540784074
H  23.842015940657227  17.05154014023961  1.623539308143405
