15

O  25.97568552772859  18.93719142030805  0.9355430045722974
H  25.732110236523457  18.002279891542933  1.169024802201434
H  25.600006647164864  19.464567222613503  1.6918138924288284
O  24.08971889676491  19.072304100282587  -0.8694666840440357
H  24.863884539602868  19.255495798250735  -0.20072260445211726
H  23.758713193390996  19.95765861352535  -1.2018921415682593
O  24.14092157308739  20.22516937442581  2.658614469536875
H  24.31623215674739  19.984722623883282  3.5873666726543916
H  23.568929639476067  19.480085497441554  2.2969390780353645
O  22.63385765417626  18.38588129696526  1.190663647454004
H  21.646661822764578  18.140420060937192  1.4093125097839354
H  22.82990425463581  18.607513440693232  0.18943911661995116
O  24.701495649551315  16.587590138026133  1.8305978799718063
H  24.71439075896023  15.819711419502125  1.2361941788127553
H  23.899677798198212  17.11180858978639  1.5515370725894562
