15

O  25.97525871869466  18.93648284784656  0.9352196301438347
H  25.728742766088892  17.9989548779858  1.1590504024766133
H  25.608937478060472  19.459433125440192  1.701095628982432
O  24.093903758860524  19.07192586281791  -0.8692150195495402
H  24.860907607053228  19.277865273032077  -0.1904466800086319
H  23.73153984256487  19.954497190216017  -1.2013099092642918
O  24.139506769723315  20.225946796229035  2.658493778228985
H  24.326417426340814  19.986742951868692  3.586532506736191
H  23.582233344410575  19.463493684621746  2.2974852127897853
O  22.633108610948295  18.38801895908592  1.1884278533857544
H  21.641689550610153  18.125690068554338  1.4518978235069273
H  22.803557286465285  18.599121370779887  0.17267275619744504
O  24.701545105745232  16.586965155279398  1.8313626149682822
H  24.714097103830262  15.819745346939891  1.2360109511643498
H  23.90630252297299  17.119622163509685  1.5424242066631382
