15

O  26.160118610072864  18.994325259163748  0.8310683257416439
H  25.93640591899011  18.08192238564682  1.1295555964266069
H  25.70106757183439  19.540610850799425  1.5114349111784169
O  24.05215434778309  19.073761470462085  -0.8917246216506015
H  24.9271866927942  19.099797295949465  -0.38774088740903956
H  23.916844659506083  19.981884026656967  -1.2135649516330316
O  24.017035991946216  20.25922850686565  2.720535899947391
H  24.133397578923994  19.96517776777213  3.6402838446424495
H  23.415963281400252  19.572579395773584  2.322498147812238
O  22.719929632878777  18.346439625309507  1.2704048623216224
H  21.762426146029057  18.240179252743573  1.1535446737395192
H  23.098799975954016  18.650957460599635  0.377422906859579
O  24.58115426479318  16.53107661409956  1.828669909921009
H  24.450257097054806  15.67472277559489  1.3490461276843175
H  23.767286336467844  17.068882379233422  1.640180100870493
