15

O  26.040616848141205  18.93738038619832  1.005855389823397
H  25.784079439084692  18.0393121076484  1.3386097606361842
H  25.649498232078805  19.528190706670216  1.6976538110153951
O  23.908728329667774  19.04068718222251  -0.8306627554906372
H  24.76203842743429  19.05590679753284  -0.274204661001626
H  23.80740124105262  19.945621486395904  -1.1696508273760664
O  24.167332524297468  20.227909011818863  2.6723915113719396
H  24.037253774416364  19.93763365434664  3.615073903528007
H  23.576866406667033  19.60687147393576  2.1277425147807274
O  22.718091961866172  18.386594188649752  1.0869944466220012
H  21.70366424644353  18.565357180720113  1.1444744412237586
H  23.047042213486414  18.697419287582093  0.16077677415454988
O  24.70056639146333  16.58850653405437  1.8317069125984782
H  24.81007204068195  15.848940881545305  1.2032207214875328
H  23.853266940599774  17.028455974588148  1.5626137008765153
