15

O  25.956031181947047  18.94491485517563  0.9127329788162262
H  25.749663960343238  18.02496795963185  1.215148839761431
H  25.483208162970445  19.49718348499867  1.587524820869227
O  24.111556876374582  19.08832105666656  -0.8867864666910111
H  24.93482308971214  19.08427745092519  -0.2862020021243903
H  24.039362034605265  19.996948192601533  -1.220387189733975
O  24.14658030338845  20.215590370567927  2.6547756832355227
H  24.308811084593863  19.98015737962001  3.5861522861769974
H  23.41961259749986  19.61505069727409  2.354380306957227
O  22.610509264300184  18.362099679256342  1.2541333325167496
H  21.679980907583676  18.14309855722996  1.0401883345410905
H  23.038294169942592  18.666111517156715  0.3846174596920438
O  24.701300103201252  16.59412129972961  1.821769907775571
H  24.68174048474427  15.808377169420512  1.2505747294421752
H  23.844209897275082  17.057116509529443  1.6476248621713068
