15

O  25.979329687356838  18.944670528131848  0.9377829393550633
H  25.750755465536667  18.032702724536822  1.2433826681039166
H  25.536144827135516  19.49462918937981  1.6364307821179283
O  24.06573213546654  19.083913001250178  -0.8671260316130662
H  24.894337493775918  18.92045814547768  -0.2883349984001251
H  23.866869169170517  19.956439744058258  -1.244127770665865
O  24.138470450945096  20.200743602486096  2.67401534722763
H  24.419595574096565  20.14317926698896  3.621975650890041
H  23.499522281208602  19.741141596864413  2.018628517062602
O  22.655497124212754  18.36538852092344  1.2285448571058304
H  21.71268676670497  18.3071003502741  0.8623269475161699
H  22.732867861073604  18.691804275184005  0.205516814883541
O  24.714414660052167  16.600581143646654  1.8378400880109445
H  24.538621500568755  15.868019608154109  1.1674612956456025
H  23.792394882786063  16.872560971019244  1.4724909448564167
