15

O  25.979202083269705  18.94366467916971  0.9379757508244726
H  25.755363540238516  18.030578988683033  1.2464034080461852
H  25.53193103428245  19.500746306391026  1.6259470142746348
O  24.060458726874018  19.0791446672223  -0.8695449029391406
H  24.89064999723374  19.00717028687897  -0.2853322215111667
H  23.927552964075783  19.97116766402589  -1.2232512314070512
O  24.146120200420043  20.2108582677716  2.665995709878947
H  24.316903588487364  20.046168563106203  3.6064558448400184
H  23.478954347203825  19.66985182082863  2.170818229805601
O  22.64680427742789  18.367272675965975  1.217436603158147
H  21.698105229646654  18.279966822344047  0.9769397544516311
H  22.9038746049216  18.682274122304  0.2711019177260182
O  24.70701762668985  16.596141619398512  1.830417816893753
H  24.637576222475  15.841030936957381  1.20646057584249
H  23.82255328123825  16.970749320453  1.5569070866028518
