15

O  25.979048958365144  18.942457660415144  0.9382071245877638
H  25.76089322988074  18.028030505658485  1.2500282959769076
H  25.526874482858773  19.508086846804485  1.6133664928626827
O  24.05413063656299  19.07342266638885  -0.8724475485304297
H  24.886225001383128  19.11122485656052  -0.28172888924441664
H  24.000373517962107  19.98884116798705  -1.1981993842964744
O  24.155299899789977  20.2229958661142  2.656372145060527
H  24.193673205756316  19.9297557184469  3.587832077579991
H  23.454272826398086  19.584304089585686  2.3534458850971993
O  22.636372861286052  18.369533662017016  1.2041066984209265
H  21.680607385176675  18.247406588827978  1.1144751227741845
H  23.109082697539197  18.670837938848  0.34980404113699093
O  24.698141186655075  16.590814190300744  1.8215110915531236
H  24.7563218887625  15.80864453152131  1.253259712078755
H  23.858743359380874  17.0885753397735  1.6582064566985741
