15

O  25.979176562452277  18.94346350937728  0.9380143131183545
H  25.756285155178887  18.030154241512275  1.247007556034639
H  25.531088275711838  19.50196972979327  1.6238502607059762
O  24.059404045155514  19.078191000416727  -0.8700286772043554
H  24.889912497925305  19.02451271515923  -0.284731666133375
H  23.939689723056837  19.974113248019417  -1.2190759235552884
O  24.14765015031503  20.212881200828697  2.66439178240921
H  24.29636519136552  20.026766422329654  3.6033518836300136
H  23.474840760402866  19.65559386562147  2.2012561723542006
O  22.645065708070916  18.36764950697448  1.2152149523686102
H  21.69518892223499  18.274540116758033  0.9998623158387232
H  22.9380759536912  18.680368091728003  0.28421893829451367
O  24.705538220017388  16.595253714548885  1.8289333626703148
H  24.657367166856254  15.835633202718036  1.2142604318818675
H  23.828584960928687  16.990386990339747  1.573790314952139
