15

O  25.979125520817426  18.943061169792426  0.9380914377061181
H  25.758128385059628  18.02930474717076  1.2482158520115463
H  25.529402758570612  19.504416576597755  1.6196567535686588
O  24.057294681718503  19.076283666805576  -0.8709962257347852
H  24.888437499308434  19.059197571719743  -0.2835305553777917
H  23.963963241018945  19.980004416006473  -1.2107253078517628
O  24.15071005010501  20.216927066942898  2.661183927469737
H  24.255288397121838  19.987962140776553  3.5971439612100045
H  23.466613586800953  19.627077955207156  2.2621320574514003
O  22.641588569356973  18.368403168991495  1.2107716507895367
H  21.689356307411664  18.26368670558601  1.0457074386129077
H  23.0064786512304  18.676556030576002  0.31045297943150457
O  24.702579406672463  16.593477904849628  1.8259644542234383
H  24.696949055618752  15.824837734239345  1.2298601439606225
H  23.840648320309562  17.029662330113247  1.607556771650713
