15

O  25.978895833460587  18.94125064166058  0.9384384983510549
H  25.766422919522963  18.025482022633938  1.2536531839076297
H  25.521817931435095  19.515427387217944  1.6007859714507306
O  24.047802546251962  19.0677006655554  -0.875350194121719
H  24.881800005532515  19.215279426242063  -0.2781255569776666
H  24.073194071848427  20.006514671948214  -1.1731475371858977
O  24.164479599159915  20.2351334644568  2.6467485802421065
H  24.07044282302527  19.81334287378759  3.569208310319964
H  23.42959130559235  19.498756358342742  2.536073540388798
O  22.625941445144218  18.371794648068054  1.1907767936837064
H  21.663109540706696  18.21484635531191  1.2520104910967378
H  23.314290790156793  18.659401755391997  0.4285061645479636
O  24.689264746620296  16.58548676120298  1.812604366212494
H  24.87506755505  15.776258126085237  1.30005884831502
H  23.8949334375235  17.206401359094002  1.7595058267942965
