15

O  25.979151041634854  18.943262339584855  0.9380528754122363
H  25.757206770119257  18.029729494341517  1.2476117040230925
H  25.530245517141225  19.503193153195514  1.6217535071373175
O  24.058349363437006  19.07723733361115  -0.8705124514695703
H  24.88917499861687  19.041855143439484  -0.2841311107555834
H  23.95182648203789  19.977058832012947  -1.2149006157035256
O  24.14918010021002  20.2149041338858  2.6627878549394732
H  24.27582679424368  20.0073642815531  3.6002479224200092
H  23.47072717360191  19.641335910414313  2.2316941149028007
O  22.643327138713946  18.368026337982986  1.2129933015790735
H  21.692272614823327  18.26911341117202  1.0227848772258155
H  22.9722773024608  18.678462061152  0.2973359588630091
O  24.704058813344925  16.59436580969926  1.8274489084468766
H  24.677158111237503  15.83023546847869  1.222060287921245
H  23.834616640619124  17.0100246602265  1.590673543301426
