15

O  25.979227604087132  18.943865848962137  0.9379371885305907
H  25.754441925298146  18.03100373585379  1.2457992600577315
H  25.532773792853064  19.499522882988785  1.6280437678432935
O  24.06151340859252  19.080098334027877  -0.8690611286739257
H  24.891387496542176  18.989827858598712  -0.2859327768889584
H  23.91541620509473  19.968222080032366  -1.227426539258814
O  24.144590250525052  20.208835334714497  2.6675996373486837
H  24.337441985609203  20.065570703882756  3.6095598060500227
H  23.48306793400478  19.684109776035786  2.1403802872570012
O  22.648542846784864  18.36689584495747  1.2196582539476837
H  21.701021537058317  18.285393527930058  0.9540171930645388
H  22.869673256152  18.684180152880003  0.2579848971575228
O  24.708497033362317  16.597029524248143  1.8319022711171915
H  24.617785278093752  15.846428671196728  1.1986607198031125
H  23.816521601547812  16.951111650566247  1.5400238582535648
