15

O  25.963873933763413  18.931061918833322  0.9239922778107025
H  26.112825399432626  18.037962449640197  1.5242193767347791
H  25.63941792416188  19.527538322460902  1.6547714711948134
O  24.06161031158724  19.08526521731142  -0.8769258971787298
H  24.76059445736629  19.143067748478444  -0.09597322054153243
H  23.922875005766308  19.95958953231813  -1.2798760228875552
O  24.15033722548446  20.21075527208142  2.6564912319094973
H  24.29615507197136  19.991610373642462  3.5921553040209786
H  23.320266284406678  19.724358169998638  2.3606160790649993
O  22.649381644932085  18.377872549312507  1.2052952551316516
H  21.6933456083936  18.248006544436397  1.0967369571498085
H  23.0404140186665  18.495279443515084  0.25232514471462203
O  24.695960354384926  16.604099200959524  1.809173405148242
H  24.76877473479587  15.808687714758051  1.2571817126645943
H  23.70144366867536  16.873596254835043  1.810062366263674
