15

O  25.9807917851374  18.94417089790741  0.9397008580210331
H  25.719741622285262  18.02787083892887  1.2182200692516914
H  25.5162424528709  19.5032068530599  1.6134253920894652
O  24.05564329871253  19.0742260869654  -0.8708749003134745
H  24.901822838070412  19.06914802794684  -0.3037029754953853
H  23.982013888248186  19.985545607520205  -1.198402664123605
O  24.152451419390616  20.219860525324286  2.6599231964545003
H  24.227927214225403  19.96599884737306  3.594249410664336
H  23.478303746177033  19.60042687000015  2.2850093245483336
O  22.638790928340878  18.367769716743055  1.2089116383187053
H  21.68567271017849  18.2593992728404  1.0655070047611324
H  23.0407095534815  18.694580061831658  0.33148609503170867
O  24.70167107173501  16.591311199893386  1.8261807327613067
H  24.71095836280046  15.820634698360216  1.235490920815045
H  23.86281737014718  17.068822638351662  1.6038152926373697
