15

O  25.984175355412194  18.946792693722227  0.9428425740630992
H  25.64112486685579  18.025852516786603  1.1570202077550737
H  25.491607358612704  19.4983405591797  1.6051561762683957
O  24.054449896137584  19.072018260896193  -0.8696647009404235
H  24.930068514211236  19.05436408384052  -0.3452489264861559
H  23.99384166474456  19.99073682256062  -1.1821079923708149
O  24.152874258171845  20.22168157597286  2.660609589363501
H  24.214281642676212  19.96087654211918  3.5946682319930074
H  23.509911238531107  19.575640610000452  2.2698879736450004
O  22.636672785022636  18.365749150229167  1.209634914956116
H  21.68413813053547  18.2616778185212  1.0592610142833971
H  23.0407686604445  18.73444018549497  0.347318285095126
O  24.702813215205026  16.58875359968016  1.8295821982839195
H  24.699395088401378  15.82302409508065  1.2311527624451353
H  23.895092110441546  17.107867915054985  1.5625658779121088
