15

O  25.970641074313004  18.936305510462958  0.9302757098948347
H  25.95559188857368  18.033925805355665  1.401819653741544
H  25.590147735645488  19.517805734700502  1.6382330395526743
O  24.059223506437355  19.08084956517301  -0.8745054984326277
H  24.81708580964794  19.1134998602658  -0.17906512252307355
H  23.94653055875906  19.96997196239896  -1.247286679381975
O  24.15118290304692  20.214397373378567  2.6578640177274986
H  24.268863928872975  19.9813657631347  3.5929929466783213
H  23.38348126911482  19.674785649999244  2.330373377258333
O  22.645145358295604  18.373831416284727  1.2067418084064732
H  21.690276449107554  18.252563635797998  1.084244976194338
H  23.0405322325925  18.574999690841715  0.2839895248414567
O  24.69824464132496  16.59898400053307  1.8159763361934678
H  24.745648185997705  15.813466508198918  1.2485053959247745
H  23.76599314926409  16.95168680824169  1.7275635368131521
