15

O  25.99263428109919  18.953347183259268  0.9506968641682645
H  25.444582978282106  18.020806711430936  1.0040205540135296
H  25.430019622967215  19.486174824479196  1.5844831367157215
O  24.051466389700227  19.066498695723183  -0.8666392025077958
H  25.000682704563296  19.01740422357472  -0.4491138039630823
H  24.023411105985502  20.00371486016166  -1.1413713129888399
O  24.153931355124925  20.22623420259429  2.6623255716360026
H  24.180167713803236  19.94807077898448  3.5957152853146863
H  23.588929969416284  19.513674960001207  2.2320845963866676
O  22.631377426727035  18.36069773394444  1.211443106549643
H  21.680301681427917  18.267374182723202  1.043646038089059
H  23.040916427851997  18.834090494653257  0.38689876025366937
O  24.705668573880068  16.582359599147093  1.8380858620904517
H  24.670486902403674  15.828997586881734  1.2203073665203605
H  23.975778961177454  17.20548110681329  1.4594423410989568
