15

O  25.967974726343282  18.939090538770223  0.9549104986301625
H  25.800255452937673  18.279977548922925  1.1805874192509802
H  25.653617453512176  19.313614643949066  1.4174889423036645
O  24.05347961368814  19.07503423553245  -0.8731243089615265
H  24.93352587784491  19.073673554259138  -0.2478614524160631
H  23.97480269804633  19.989085100533426  -1.2101173560562257
O  24.148341466302238  20.215304246280287  2.6583119089561413
H  24.232974512876226  19.971026472948783  3.5763211670111352
H  23.52953077181664  19.66819037599483  2.3278226297100137
O  22.638943586328104  18.368239886559778  1.2099727229078396
H  21.690662179082384  18.25786713780952  1.0709349170641704
H  23.05513694419641  18.683104969972682  0.29946586311870776
O  24.69303216120783  16.595924934975393  1.8219030309901703
H  24.713190784414085  15.840657978092649  1.2504389140368606
H  23.98017928055242  16.977865210130734  1.650950891619688
