15

O  25.988371061380594  18.946001217691478  0.9241462511415313
H  25.724712122551935  17.819632042564233  1.3056804839575165
H  25.42434545540652  19.665661130042444  1.784285881413613
O  24.058540321926547  19.075576470389628  -0.8701097425320613
H  24.84951176846257  19.078928704784055  -0.3121537896532808
H  23.97718108496139  19.977837416222144  -1.2035772032864787
O  24.155488778081466  20.22198812809976  2.660636742536549
H  24.236229572603143  19.966504605876015  3.6088056941573874
H  23.40664102348613  19.566678020004307  2.2631928085749884
O  22.640605344726577  18.36923009453352  1.2073643975768003
H  21.68292151743135  18.258587385158734  1.066709235779858
H  23.02863254650299  18.66760419168943  0.34365678073441025
O  24.707823198993474  16.589810887520507  1.8266274741748583
H  24.71969767965493  15.80175835158946  1.2270109049692828
H  23.735430599539647  17.10882899155772  1.6023475903169269
