15

O  25.971683150895522  18.940347025846815  0.949316999086775
H  25.786520301958447  18.196278365948615  1.2033316128339868
H  25.611931635674782  19.377623095966044  1.4841792948691097
O  24.05439974245876  19.0751328236883  -0.8725762059743509
H  24.91825058522994  19.07462903617276  -0.25955096827737545
H  23.975235132030885  19.987040067022285  -1.208928237370817
O  24.149640977534826  20.216519497520192  2.658734605970761
H  24.233566341917484  19.97020431529919  3.58222744467409
H  23.50718718121109  19.649733583996554  2.316071753140009
O  22.639245724218735  18.368419924373185  1.2094984819385597
H  21.68925478605492  18.257998091873013  1.0701666113761135
H  23.050317962797603  18.680286646648455  0.30750057541247183
O  24.695721440805222  16.594813289983595  1.8227620206601136
H  24.714373856276058  15.833585318728433  1.2461792760245736
H  23.93567952036828  17.00167680675382  1.6421139277464587
