15

O  26.02111909672697  18.92844170016098  1.020223036011702
H  25.7171588837226  18.03421770830238  1.3255237097927752
H  25.541657952940135  19.529643733546376  1.6444733041989823
O  24.04557251205372  19.101145865403932  -0.9912553206851595
H  24.853771326289884  19.083451164487307  -0.39419505977459307
H  23.986487536228296  20.028100242853125  -1.2816851619214735
O  24.149038555363685  20.209734065979692  2.6404991486802847
H  24.328021200842834  19.934261974659346  3.5598257881932076
H  23.521652556295724  19.520267611336916  2.2916170737317914
O  22.62214349422838  18.31693452832193  1.2731121260913751
H  21.603459434736287  18.58013851590531  1.2779498575786343
H  22.966502210957728  18.643143596955145  0.38592389654270937
O  24.692900043356957  16.632089676371624  1.8060885284018346
H  24.803510394211415  15.818026701550266  1.2767776633768344
H  23.781369329356504  16.967101404140962  1.5997092952977598
