15

O  25.983850256108354  18.93309651165242  0.9382618181109381
H  25.742440375617054  18.069712130169684  1.385295285070542
H  25.414754024122125  19.600505763767252  1.453532908923042
O  24.064115479513585  19.07824499902993  -0.8644391852882444
H  24.949035301795142  19.10866660216568  -0.3571233671153751
H  23.86305858636381  19.96297028210169  -1.228190266575316
O  24.16025848217132  20.207501735798978  2.6608182704647545
H  24.206405741465538  19.999653924225182  3.60897544931222
H  23.291170473030313  19.77620706436252  2.3491949458414862
O  22.642011843884475  18.361671670958053  1.204234868240417
H  21.66843309143128  18.312786823301956  1.1562081798437243
H  23.010232671091607  18.673618117513534  0.30749538775736907
O  24.701866818687613  16.58757368397795  1.8254700116928972
H  24.68793690143597  15.802723775953972  1.253535075003735
H  23.931614118417812  17.153005184872608  1.5081713321211627
