15

O  25.984641965459748  18.93146926359449  0.9382837877960946
H  25.739672104886566  18.076517485197964  1.4080411659156322
H  25.39578636147581  19.616316724395126  1.4261950604102156
O  24.065428059432517  19.078730832201586  -0.8632657161696184
H  24.959257852094336  19.114021035859963  -0.36948892830127095
H  23.844218350757778  19.959640329118642  -1.2317969776712019
O  24.161594895866536  20.205593691765472  2.661024648875547
H  24.20168169837646  20.00483624492938  3.6114646908642563
H  23.2626155518687  19.803438241756275  2.3586324368150673
O  22.642372151198554  18.36048694945106  1.2035156796138196
H  21.66543194000316  18.321874627185615  1.1708045431510117
H  23.00515811627354  18.673446137099123  0.3048162857169306
O  24.701994621802214  16.586737631307606  1.8256350136417134
H  24.683136385008634  15.799937738612968  1.2561809208376908
H  23.94576980482078  17.170289382351378  1.4887932208080232
