15

O  25.97891809251908  18.94176575985978  0.9423755158999539
H  25.79948535466533  18.011802752779026  1.2304933192061573
H  25.481808092667787  19.477729183800697  1.614598889986418
O  24.051292938632653  19.07555673411554  -0.8679575749536752
H  24.886601527419774  19.06402915538291  -0.2855017502651083
H  23.996757509274158  19.97907092613176  -1.220028133644882
O  24.145047198027996  20.220764787120064  2.6597941019390223
H  24.354919274186745  20.01745012334422  3.595256347935755
H  23.456421503375797  19.561951872721412  2.378012975070304
O  22.64118139605156  18.359643172295133  1.1931296962490345
H  21.674700780163533  18.33884488327726  1.0743661567596439
H  23.046879673658875  18.684457625556856  0.31641349596645435
O  24.712713255179416  16.592238060943835  1.8242317686043399
H  24.556583573721962  15.84518763754987  1.1971521989663052
H  23.875157146803204  17.132075414436073  1.7390367093127852
