15

O  25.97900904625954  18.94231287992989  0.940252757949977
H  25.779267677332662  18.020341376389513  1.2396566596030787
H  25.505184046333895  19.49168459190035  1.616079444993209
O  24.053766469316326  19.075443367057773  -0.8697187874768376
H  24.887150763709887  19.070284577691456  -0.2842158751325542
H  23.98642875463708  19.981010463065882  -1.213289066822441
O  24.148643599013997  20.21985739356003  2.659687050969511
H  24.29483463709337  19.99300506167211  3.5946481739678773
H  23.459460751687896  19.587385936360704  2.335291487535152
O  22.64051569802578  18.364211586147565  1.2008398481245173
H  21.680570390081765  18.29855244163863  1.071498078379822
H  23.043779836829437  18.67955381277843  0.31999174798322716
O  24.70690662758971  16.592414030471918  1.82435588430217
H  24.636661786860984  15.832313818774935  1.2174060994831526
H  23.8609185734016  17.090687707218034  1.6817383546563927
