15

O  25.978781661908393  18.940945079754616  0.9455596528249194
H  25.829811870664326  17.998994817363297  1.2167483086107753
H  25.44674416216863  19.456796071651222  1.6123780574762314
O  24.047582642607143  19.075726784702194  -0.8653157561689315
H  24.885777672984606  19.054646021920092  -0.2874305629639396
H  24.01225064122978  19.976161620730583  -1.2301367338785434
O  24.13965259654899  20.222125877460112  2.659954678393289
H  24.445046229826804  20.054117715852385  3.5961686088875706
H  23.451862630907645  19.52380077726247  2.442095206373032
O  22.642179943090234  18.35279055151648  1.1815644684358104
H  21.66589636528618  18.399283545735205  1.078668274329377
H  23.05152942890303  18.6918133447245  0.31104611794129505
O  24.72142319656398  16.591974106651712  1.824045595057595
H  24.436466254013435  15.864498365712274  1.1667713481910342
H  23.89651500690561  17.194156975263127  1.824984241297374
