15

O  25.97905452312977  18.942586439964945  0.9391913789749885
H  25.769158838666332  18.02461068819476  1.2442383298015394
H  25.516872023166947  19.498662295950176  1.6168197224966045
O  24.055003234658162  19.075386683528887  -0.8705993937384188
H  24.887425381854943  19.073412288845727  -0.2835729375662771
H  23.98126437731854  19.98198023153294  -1.2099195334112205
O  24.150441799506996  20.219403696780017  2.6596335254847556
H  24.264792318546686  19.980782530836056  3.5943440869839387
H  23.46098037584395  19.60010296818035  2.313930743767576
O  22.64018284901289  18.366495793073785  1.2046949240622586
H  21.683505195040883  18.278406220819313  1.070064039189911
H  23.042229918414716  18.677101906389215  0.3217808739916136
O  24.704003313794853  16.59250201523596  1.824417942151085
H  24.676700893430493  15.825876909387468  1.2275330497415764
H  23.853799286700802  17.069993853609017  1.6530891773281964
