15

O  25.979190953740456  18.94340712007011  0.9360072420500231
H  25.738832322667335  18.03741862361049  1.2579833403969214
H  25.551935953666103  19.51959540809965  1.6190405550067912
O  24.058713530683672  19.07521663294223  -0.8732412125231624
H  24.88824923629011  19.082795422308546  -0.28164412486744583
H  23.96577124536292  19.984889536934116  -1.199810933177559
O  24.155836400986  20.21804260643997  2.659472949030489
H  24.174665362906627  19.94411493832789  3.593431826032123
H  23.4655392483121  19.638254063639295  2.249848512464848
O  22.63918430197422  18.373348413852437  1.2162601518754828
H  21.692309609918237  18.21796755836137  1.065761921620178
H  23.03758016317056  18.66974618722157  0.3271482520167729
O  24.69529337241029  16.592765969528084  1.82460411569783
H  24.79681821313902  15.806566181225065  1.2579139005168474
H  23.832441426598397  17.007912292781963  1.5671416453436076
