15

O  25.98622538416253  18.92821476747863  0.9383277271664072
H  25.734135563425582  18.090128195254525  1.4535329276058129
H  25.357851036183185  19.64793864565088  1.371519363384563
O  24.06805321927038  19.079702498544897  -0.8609187779323666
H  24.979702952692715  19.12472990324852  -0.39422005067306265
H  23.806537879545715  19.95298042315254  -1.2390103998629738
O  24.164267723256977  20.201777603698464  2.6614374056971317
H  24.192233612198304  20.015200886337773  3.6164431739683294
H  23.20550570954547  19.857900596543782  2.377507418762229
O  22.64309276582671  18.35811750643708  1.2020773023606253
H  21.659429637146918  18.340050234952933  1.1999972697655863
H  22.995009006637414  18.673102176270298  0.2994580816360536
O  24.702250228031417  16.58506552596692  1.8259650175393458
H  24.67353535215396  15.794365663930959  1.2614726125056024
H  23.97408117762672  17.204857777308913  1.450036998181744
