15

O  25.982266837405568  18.93635100776828  0.9382178787406255
H  25.747976917078038  18.056101420113123  1.3398035233803613
H  25.452689349414747  19.5688838425115  1.5082086059486948
O  24.061490319675723  19.077273332686623  -0.8667861235254962
H  24.928590201196762  19.097957734777122  -0.3323922447435834
H  23.900739057575873  19.969630188067793  -1.220976844383544
O  24.157585654780878  20.211317823865983  2.6604055136431697
H  24.21585382764369  19.989289282816788  3.6039969662081464
H  23.34828031535354  19.721744709575013  2.330319963894324
O  22.641291229256318  18.364041113972036  1.2056732454936112
H  21.67443539428752  18.294611215534637  1.1270154532291494
H  23.02038178072774  18.673962078342356  0.31285359183824607
O  24.70161121245841  16.589245789318632  1.8251400077952649
H  24.69753793429065  15.808295850635982  1.2482433833358233
H  23.903302745611875  17.118436789915073  1.546927554747442
