15

O  25.976724871945823  18.94774174417379  0.9380640909445309
H  25.76735481219147  18.00846393491516  1.1805823574647292
H  25.585462987938936  19.458207118116373  1.6995735455384793
O  24.052302260243206  19.073872500485034  -0.8750004073558778
H  24.857032349102425  19.06047669891716  -0.24583331644231246
H  24.032620706818093  19.992939858949153  -1.195729866712342
O  24.14823075891434  20.22467413210051  2.658960864767623
H  24.24892212926723  19.95301303788741  3.5865722753438902
H  23.54816476348484  19.531126467818737  2.264257527079257
O  22.638769078057763  18.372334164520975  1.2107075658797917
H  21.695443454284362  18.230996588349022  1.024840910078138
H  23.055903664454192  18.675165941243232  0.3316073061213155
O  24.700716590656196  16.595098158011027  1.8239849941535515
H  24.731141549282015  15.827798112023014  1.2297224624981324
H  23.804212940791093  16.997447407563694  1.6825743339394188
