15

O  25.97958862175137  18.935011587302668  0.9405730693011242
H  25.890431324933854  18.024865478973656  1.3372657472358043
H  25.284933970116338  19.50679477729111  1.459424476707641
O  24.05810974348279  19.085012196705602  -0.8585245319159817
H  25.0024075220436  19.049527138512982  -0.4449331956950976
H  23.9146550638115  19.960620402420894  -1.258469933686944
O  24.15422186291683  20.228993971217545  2.6693633322253625
H  24.16297167867996  19.973671221433282  3.6094547025835624
H  23.66935334928565  19.446717231176965  2.1965283866522594
O  22.633348047633625  18.378571963019706  1.2079249872627231
H  21.687776457619336  18.194893374787647  1.080576736875826
H  23.056341227236313  18.577052423999454  0.2969972805987921
O  24.70037360633122  16.59882123541691  1.8186135251892728
H  24.728893744613032  15.821932710381422  1.2380163100966892
H  23.787272188020705  16.978156862238105  1.7063195640742808
