15

O  25.979030196892662  18.943981201813905  0.9377809900998394
H  25.74028123929516  18.029453503003765  1.236184893252028
H  25.563363718554807  19.505475031815557  1.6401507890417657
O  24.055972893788173  19.073946829042058  -0.8733307811548598
H  24.871313211136627  19.080398980212433  -0.25978668632927177
H  23.984877848026926  19.9861399425113  -1.199132866616151
O  24.151956876726167  20.21751514696892  2.6581823811106626
H  24.24500404590286  19.967829825509533  3.59183789963092
H  23.43294952153062  19.63654896697472  2.3062902304782487
O  22.64077885033805  18.367381148140044  1.2086392875338967
H  21.68624907748295  18.267312375030336  1.0669233233034534
H  23.038442681823383  18.68859251085722  0.32736610277160116
O  24.701203770524113  16.59169982351187  1.825318067830104
H  24.71500375076957  15.81908389851694  1.2376090985576158
H  23.855166830282755  17.059463305394555  1.61274291941796
