15

O  25.979518818644028  18.93613278911657  0.9402240594009637
H  25.871662564229016  18.02543898197742  1.3246306404878323
H  25.319737688671147  19.506629809106666  1.4820152657494066
O  24.057842637270966  19.08362902574766  -0.8603753130708414
H  24.98602073318023  19.053386118725413  -0.4217898820243694
H  23.923432911838432  19.963810344932195  -1.251052800303095
O  24.153938739643  20.227559118186466  2.667965713336025
H  24.173225724582824  19.972941046942815  3.6072526022144817
H  23.639802870816272  19.470446198151684  2.210248617130508
O  22.634276897971677  18.377173111159745  1.2080142747966198
H  21.687585535102286  18.203945749817983  1.0788700601792793
H  23.054103909059698  18.590994934856674  0.30079338337039324
O  24.70047737685533  16.59793105892878  1.8194515930193769
H  24.7271574953826  15.821576608898361  1.237965408654305
H  23.79575901830346  16.98832016763266  1.6946224834922408
