15

O  25.917583151858793  18.94833961380168  0.8704046101766031
H  25.734020560915305  18.018447892351602  1.1590302393638159
H  25.407621767921192  19.483089293329783  1.537466188984605
O  24.203751670332224  19.109972817777493  -0.9122972445093629
H  25.013361572565707  19.097173202467165  -0.29165533899837404
H  24.144798758947378  20.020278513604094  -1.2434491726239336
O  24.13714747570253  20.209990988181136  2.6467684886280605
H  24.432246225583633  19.99948634565336  3.5730060964719934
H  23.348133593332964  19.618768526064237  2.4573974852192726
O  22.561608038133826  18.35096581135025  1.3301055533779989
H  21.669215753556472  17.951162819279887  0.9927855587762414
H  23.034317786513583  18.651880712417906  0.48636322584545016
O  24.70163360853667  16.59667346594563  1.817253087401522
H  24.623407959318055  15.789939118454695  1.2720992785124672
H  23.840093059400225  17.07014402541185  1.686266299123485
