15

O  25.932962363894095  18.946969710351258  0.8873359576324523
H  25.740277920686477  18.021055919263702  1.1814776795228619
H  25.437856325940892  19.488726969997337  1.5574896417384538
O  24.16687375274917  19.10131211333312  -0.9020929333820221
H  24.98194617942428  19.092014901850376  -0.28947400424878056
H  24.10262406921053  20.01094638520307  -1.2342243794679502
O  24.1409206067769  20.212230741135855  2.6499713664710454
H  24.382872169187724  19.99175475924002  3.578264572353995
H  23.37672519499972  19.61728139454818  2.416190613914454
O  22.58116852860037  18.355419358512687  1.299716665033499
H  21.673521815167355  18.027937114459917  1.011746669082181
H  23.035908339885186  18.65757303431343  0.44566491938408764
O  24.701500206402503  16.595652599459225  1.8190598155511415
H  24.64674096948854  15.797314338841023  1.2634894588843504
H  23.84173979455017  17.064933019058888  1.6708097243426137
