15

O  25.963720787964697  18.94422990345042  0.9211986525441508
H  25.752792640228826  18.0262719730879  1.226372559840954
H  25.498325441980295  19.500002323332446  1.5975365472461514
O  24.093117917583054  19.083990704444375  -0.8816843111273407
H  24.919115393141425  19.081698300616793  -0.28511133474959355
H  24.01827468973684  19.992282128401023  -1.2157747931559835
O  24.14846686892563  20.216710247045285  2.656377122157015
H  24.284124056395907  19.97629158641334  3.5887815241179983
H  23.43390839833324  19.61430713151606  2.333776871304818
O  22.620289509533457  18.364326452837563  1.2389388883444996
H  21.682133938389118  18.181485704819973  1.0496688896940602
H  23.039089446628395  18.668957678104476  0.36426830646136255
O  24.701233402134168  16.593610866486408  1.8226732718503806
H  24.693406989829516  15.812064779613674  1.2462698196281168
H  23.845033264850056  17.05451100635296  1.6398965747808714
