15

O  26.025237636105903  18.93875028964874  0.9889240423675477
H  25.77782207931352  18.0367040807363  1.3161623204771382
H  25.619263674059106  19.522553030002662  1.6776303582615464
O  23.94560624725083  19.049347886666883  -0.8408670666179779
H  24.793453820575717  19.061065098149626  -0.27638599575121947
H  23.849575930789467  19.954953614796928  -1.1788756205320499
O  24.1635593932231  20.225669258864144  2.6691886335289547
H  24.086627830812272  19.94536524075998  3.609815427646005
H  23.548274805000275  19.60835860545182  2.1689493860855458
O  22.69853147139963  18.382140641487315  1.117383334966501
H  21.699358184832647  18.488582885540083  1.125513330917819
H  23.04545166011481  18.69172696568657  0.2014750806159124
O  24.700699793597497  16.589527400540778  1.8299001844488587
H  24.786739030511463  15.841565661158977  1.2118305411156496
H  23.85162020544983  17.03366698094111  1.5780702756573866
