15

O  25.98059636596883  18.92896465145289  0.9362498839458178
H  25.741073771378954  18.019915962715785  1.2517844162045524
H  25.54589632112067  19.503786170859772  1.6144320698318542
O  24.056218997214007  19.073514630114552  -0.8709481828757027
H  24.887754284979135  19.07198234081924  -0.282399080849686
H  23.974044271957766  19.983499931199354  -1.1991222582361845
O  24.155288009796966  20.2345507324041  2.6746253118461443
H  24.2409292070424  19.97869638277448  3.6074547114852766
H  23.46865993931606  19.626898434001117  2.3075825887449466
O  22.63961733061812  18.350856574308175  1.2024979621845968
H  21.689665036950355  18.218917734883618  1.0559524639620532
H  23.040278047650304  18.663576296500416  0.3198445889780975
O  24.69638140420635  16.611407348623406  1.8165248816743385
H  24.719795813570787  15.835554365874705  1.2335987221413296
H  23.83789426564652  17.061770732916028  1.6136039757468261
