15

O  25.98358909790649  18.901173954358672  0.9324896518374531
H  25.705121314136868  18.00198788814735  1.2577132486136573
H  25.580568963362005  19.50007851257932  1.6081762094955623
O  24.056176991642026  19.069883890343654  -0.8698845486271082
H  24.887862854937406  19.062867022457716  -0.28133724254905795
H  23.969932815873296  19.98459979359806  -1.1842667747085531
O  24.161384029390902  20.265752197212294  2.7047159355384323
H  24.253287621127196  19.998969148323443  3.63428413445583
H  23.480979817948175  19.655055302003348  2.3376077662348402
O  22.639151991854355  18.315009722924525  1.1903938865537902
H  21.69611511085106  18.14023320465085  1.03059739188616
H  23.039474142950915  18.641428889501253  0.3123937669342924
O  24.686944212619046  16.649042045870214  1.800614645023015
H  24.725907440712362  15.867783097624114  1.2254761664239886
H  23.820322796939553  17.08671219874809  1.5919319272404782
