15

O  25.98508546387532  18.887278605811563  0.9306095357832708
H  25.687145085515823  17.993023850863135  1.2606776648182096
H  25.597905284482675  19.498224683439098  1.6050482793274166
O  24.056155988856034  19.06806852045821  -0.8693527315028109
H  24.887917139916542  19.058309363276955  -0.28080632339874395
H  23.96787708783106  19.985149724797417  -1.1768390329447374
O  24.164432039187872  20.281352929616393  2.719761247384576
H  24.259466828169593  20.009105531097923  3.6476988459411066
H  23.48713975726423  19.669133736004465  2.352620354979787
O  22.63891932247247  18.2970862972327  1.1843418487383868
H  21.69934014780141  18.100890939534466  1.0179198558482132
H  23.03907219060122  18.630355186001673  0.30866835591238984
O  24.682225616825395  16.667859394493618  1.7926595266973533
H  24.72896325428315  15.883897463498817  1.2214148885653182
H  23.81153706258607  17.09918293166412  1.5810959029873042
