15

O  25.989574561781808  18.845592560170235  0.9249691876207239
H  25.633216399652692  17.966131739010486  1.2695709134318667
H  25.64991424784468  19.49266319601842  1.5956644888229787
O  24.056092980498057  19.06262241080186  -0.8677572801299192
H  24.88807999485395  19.044636385734666  -0.27921356594780183
H  23.961709903704357  19.98679951839548  -1.1545558076532905
O  24.173576068578775  20.328155126828687  2.7648971829230082
H  24.27800444929679  20.039514679421366  3.6879429803969366
H  23.505619575212407  19.711369038007817  2.397658121214627
O  22.638221314326827  18.243316020157227  1.166185735292177
H  21.70901525865247  17.982864144185317  0.9798872477343732
H  23.037866333552138  18.597134075502925  0.2974921228466822
O  24.668069829444438  16.724311440363834  1.7687941717203683
H  24.73813069499551  15.932240561122931  1.2092310549893068
H  23.785179859525623  17.13659513041221  1.548587830227782
