15

O  26.009829362546505  18.934493903005922  0.9957870952617466
H  25.83158979706259  18.002400921827483  1.2713400563584971
H  25.474440977100897  19.46174416116376  1.649807621578674
O  24.015099131340477  19.074058551297142  -0.9140287450146803
H  24.84783839037581  19.045156052409038  -0.33678356228417783
H  23.910873748926466  20.02068921926618  -1.1411545746822944
O  24.151824714303782  20.212552337123004  2.6452943438569902
H  24.32376197108571  19.87927801868491  3.5500468556116327
H  23.392306409600394  19.67257762557107  2.3089857716624254
O  22.645074944806545  18.40902603740674  1.2190417377227982
H  21.757247072457734  17.855938772089274  0.9803521367534193
H  23.031799347813582  18.670951802927423  0.31410393285003063
O  24.711010442730732  16.596177568027674  1.8141026360134327
H  24.595822238452236  15.775052623493641  1.287531875532569
H  23.905139506722357  17.152070074641994  1.6187079400833309
