15

O  25.99665963574086  18.93807937314624  0.9710769115781409
H  25.800501312607196  18.013749098187134  1.261688603633427
H  25.497634844057657  19.480556663522147  1.635987212330671
O  24.032730932194557  19.074603457884084  -0.8957935685798174
H  24.864921937357604  19.058606315662306  -0.3137034641623873
H  23.938827856529407  20.0045152681521  -1.1691811855327396
O  24.152002693887876  20.215294192641718  2.65141676791828
H  24.285613983477546  19.917541724962806  3.5689010603495044
H  23.42238937691451  19.64696721461204  2.301950440949957
O  22.642835682746597  18.391777735660995  1.2145452786987418
H  21.72690118426156  18.028362155479584  1.0181855067162395
H  23.035605341607763  18.672536744529957  0.3181608187714461
O  24.70676311013185  16.594640038872956  1.8185500777219616
H  24.64764413625842  15.79407578485351  1.2661582145900394
H  23.880085432412773  17.108025756938282  1.6211645371904748
