15

O  25.98389698580752  18.903448437945958  0.987744537726991
H  25.744215794749827  17.990228759462866  1.2889631781230386
H  25.53148117939  19.48006125073592  1.653729856598531
O  24.053558310489322  19.11369694191864  -0.8095599186287946
H  24.890363818424568  19.078400315912006  -0.22824880937786723
H  23.971703422729618  20.044149702644184  -1.082938833554828
O  24.12898577727014  20.3213715156251  2.5644640123027806
H  24.15367151537512  20.24538007281037  3.550343202256023
H  23.449681009224914  19.661040868269495  2.2664958133869413
O  22.653529783675218  18.337431486650487  1.257036773810608
H  21.700161661931492  18.223952987420134  1.1177980342696738
H  23.047622727090612  18.66457979645462  0.3754788520064257
O  24.712434330454734  16.509373859570236  1.7533824995343321
H  24.730993669647123  15.809973381764069  1.0691778037234907
H  23.857803160958596  16.988572157254076  1.6052839470672084
