15

O  25.977501004730826  18.955997187351347  0.9215918207576697
H  25.76399473508339  18.041763746845714  1.2354389406256538
H  25.527586273536667  19.514166249754695  1.605503381133823
O  24.057133896503558  19.062541019360456  -0.8921200271237352
H  24.88681206052514  19.075919894696  -0.3011570635407109
H  23.97756552575679  19.962550099118605  -1.2477537221483908
O  24.15999140757662  20.184809494791633  2.6912853292324064
H  24.261776161541626  19.876286642396543  3.6086055992479924
H  23.466772996925027  19.5967463772435  2.3012613955376864
O  22.63529007210826  18.37922950444984  1.1923877420631306
H  21.681866112689505  18.269695670859956  1.052240655243442
H  23.03836575763646  18.678006734515126  0.3062670493311915
O  24.69732188984842  16.62032871347659  1.8481791668218894
H  24.711988776784295  15.822595539411978  1.2938207320921697
H  23.842972279680467  17.06954261424864  1.6308253509775974
