15

O  25.986295478711277  18.883742656918937  1.0125518065904866
H  25.736798692124744  17.9709031391943  1.309034767184558
H  25.532941769085  19.467271876103876  1.6718147848977967
O  24.052217465733982  19.132880412877963  -0.7785998779431919
H  24.891695727636854  19.079330473868005  -0.20090821406680087
H  23.96950513409443  20.074749553966274  -1.0211332503322421
O  24.11735866590521  20.372582273437647  2.516906018454171
H  24.113132273062682  20.383790109215553  3.528494803384034
H  23.44327151383737  19.68515130240424  2.253458720080412
O  22.66036967551283  18.32175722997573  1.2812801607159119
H  21.707022492897238  18.206799481130197  1.1423820514045107
H  23.05109409063592  18.65954469468193  0.40143327800963857
O  24.718101495682102  16.467765789355354  1.7178337493014981
H  24.738120504470682  15.805240072646102  0.9849367055852363
H  23.8633647414379  16.958208235881116  1.5957059206008126
