15

O  25.97190452128872  19.001977343081062  0.8637081934095135
H  25.781301307875253  18.086856860805703  1.1886052328154422
H  25.524178230915  19.544008123896123  1.5633052151022035
O  24.060262534266016  19.01777958712204  -0.9643601220568082
H  24.883704272363143  19.073749526131998  -0.36495178593319916
H  23.982694865905568  19.891150446033723  -1.391966749667758
O  24.187121334094787  20.065317726562352  2.802253981545829
H  24.356367726937314  19.553329890784447  3.659585196615966
H  23.481728486162627  19.54048869759576  2.331681279919588
O  22.61933032448717  18.41580277002427  1.1358198392840881
H  21.665857507102764  18.309720518869803  0.9948779485954893
H  23.030265909364076  18.68975530531807  0.24570672199036148
O  24.684098504317898  16.717414210644648  1.931126250698502
H  24.69535949552932  15.833639927353898  1.4903832944147637
H  23.8299952585621  17.14039176411888  1.6531740793991876
