15

O  25.979899497634584  18.936291406324326  0.9463990896211651
H  25.756577632458303  18.022438126577146  1.2555105296871731
H  25.529046863231667  19.501376875122652  1.6235883094330885
O  24.055793051748218  19.081724490319775  -0.8611599864381324
H  24.888143969737428  19.076850052652002  -0.27381646822964456
H  23.975367237121603  19.993149950440696  -1.1859481389258046
O  24.14836429621169  20.23602025260418  2.643727335383797
H  24.221236919229185  20.014696678801727  3.5867572003760038
H  23.460363501537483  19.62085681137825  2.288224302231157
O  22.64212996394587  18.363555247775082  1.2166311289684346
H  21.68872694365525  18.252542164570023  1.0768246723782788
H  23.041837121181768  18.672971632742435  0.3322214753344043
O  24.70298905507579  16.578720643261708  1.8126304165890554
H  24.719115611607855  15.817862230294011  1.209579633953915
H  23.848533860159765  17.03917869287568  1.6212473245112016
