15

O  25.973503516557894  18.988840155729715  0.8802463726518439
H  25.77635657279186  18.07397311395999  1.2019862921897884
H  25.52515195737833  19.53548187414143  1.5753618339683806
O  24.059368637762457  19.030568567761588  -0.9437200949330731
H  24.884592211838  19.074369631435996  -0.34672472239248825
H  23.981229340148776  19.911550346915117  -1.3507630275193674
O  24.179369926518167  20.09945823177072  2.7705486523134226
H  24.32934156539569  19.645603248387904  3.6450195973679738
H  23.4774554892376  19.556562320352256  2.3229898843819017
O  22.62389025237891  18.405353265574433  1.1519820972209573
H  21.670431394413264  18.298284848009846  1.0112672933520472
H  23.032580151727615  18.686398570802943  0.2630096726591701
O  24.687876614469477  16.68967549716806  1.9074270838766128
H  24.700110718745027  15.83048438794192  1.434222562322594
H  23.833702978881636  17.12014914987024  1.6467887284215905
