15

O  25.979179064897668  18.94310661267194  0.9380373814366512
H  25.758067847887304  18.024481697988655  1.249661808104153
H  25.52830176722531  19.506110838327178  1.6178336852604032
O  24.056236005035373  19.075336324082677  -0.8714876883878221
H  24.887604766674546  19.076405776941783  -0.2827472436217939
H  23.976057840439804  19.98293702916969  -1.2065602289065713
O  24.15274825221568  20.218592943421132  2.662076619862224
H  24.230583921505303  19.978035218403928  3.5553777337029286
H  23.458639462246353  19.6088670203776  2.2915366901747154
O  22.64503749193701  18.369566289648535  1.208840125313921
H  21.603608283476838  18.248289847193767  1.0583681425730815
H  23.0406711280221  18.672952644709056  0.32913101096804165
O  24.703549838840132  16.577849350492475  1.8147501815223255
H  24.7052012417481  16.045545088859015  1.4040872280567835
H  23.81999601416193  17.05653311104715  1.6129047287809044
