15

O  25.979238363570918  18.943291572175895  0.9379679175141395
H  25.757331233802788  18.021182971480147  1.2502931641822677
H  25.528108092644295  19.50646396707256  1.6180389492057057
O  24.056233008811905  19.075341067144688  -0.8714934546786887
H  24.88753334168046  19.076305109648118  -0.28261017633813923
H  23.976026220769658  19.98292730104696  -1.2065679005864995
O  24.15312944137744  20.21832515098698  2.663949084758892
H  24.227459362634285  19.985141632206876  3.5263810339801247
H  23.45574405893112  19.605902285660797  2.2907617078057516
O  22.64892811088977  18.370156006884933  1.2090577192993617
H  21.541484496084465  18.24081223258909  1.0506717495028928
H  23.04066447403868  18.671679628240852  0.33330176919407284
O  24.70538721797023  16.56679386336183  1.8074528176640696
H  24.696547173059177  16.215123905503276  1.5289076490993712
H  23.79998302478338  17.06195794433251  1.6042532753665826
