15

O  25.97904070132675  18.942675040496045  0.9381994639225116
H  25.75978661408452  18.03217872650851  1.2481886439218854
H  25.528753674581015  19.50528687125462  1.6173547360546978
O  24.056242996223467  19.075325256937994  -0.8714742337091335
H  24.88777142499409  19.076640667293667  -0.2830670672836546
H  23.976131619670145  19.98295972812273  -1.2065423283200716
O  24.151858810838238  20.21921779243415  2.657707535103332
H  24.23787455887102  19.961453586197052  3.6230366997228036
H  23.46539540331523  19.6157847347168  2.2933449823689633
O  22.63595938104724  18.3681902827636  1.2083324060145593
H  21.748563787392374  18.265737614604674  1.0763263930701887
H  23.04068665398342  18.675923016468207  0.31939924177396883
O  24.699262620869902  16.603645487130645  1.831777363858256
H  24.725394068688928  15.649861183355739  1.1128395789574124
H  23.86669298937855  17.04387516671464  1.633091453414322
