15

O  25.979139532448833  18.94298330633597  0.9380836907183256
H  25.758558923943653  18.026680848994328  1.2492409040520764
H  25.528430883612653  19.505875419163587  1.6176968426302016
O  24.056238002517688  19.07533316204134  -0.8714838441939111
H  24.887652383337272  19.076472888470892  -0.2828386218108969
H  23.9760789202199  19.982943514584846  -1.2065551144532856
O  24.15249412610784  20.218771471710564  2.660828309931112
H  24.232666960752653  19.973297609201964  3.574708866851464
H  23.460569731123176  19.6108435101888  2.2920533450873575
O  22.642443745968507  18.369173144824266  1.2086950626569604
H  21.645024141738418  18.253274923596884  1.0634990712865409
H  23.04067556401105  18.673801322354528  0.32635050548402084
O  24.702324919420068  16.58521967524624  1.8196150907611628
H  24.71097062087405  15.932492544429508  1.3208736140283917
H  23.833338007080965  17.052916555523574  1.6186723643904521
