15

O  25.979080233775584  18.942798346832014  0.9381531546408373
H  25.759295538028173  18.029979575502836  1.2486095479739618
H  25.52862455819367  19.505522290418206  1.6174915786848993
O  24.056240998741156  19.075328418979332  -0.8714780779030445
H  24.887723808331362  19.076573555764558  -0.28297568909455156
H  23.976110539890048  19.982953242707577  -1.2065474427733571
O  24.15211293694608  20.219039264144715  2.658955845034444
H  24.23579151962367  19.966191195399016  3.603705566574268
H  23.463465134438408  19.6138082449056  2.2928283274563213
O  22.638553127015747  18.36858342758787  1.2084774686715198
H  21.70714792913079  18.260752538201558  1.0711954643567296
H  23.040682217994473  18.675074338822736  0.32217974725798965
O  24.700487540289966  16.596275162376884  1.8269124546194186
H  24.719624689562977  15.762913727785246  1.196053192985804
H  23.853350996459515  17.047491722238213  1.627323817804774
