15

O  25.97902093510233  18.94261338732806  0.9382226185633489
H  25.760032152112693  18.033278302011347  1.247978191895847
H  25.528818232774686  19.50516916167282  1.617286314739597
O  24.056243994964625  19.075323675917325  -0.871472311612178
H  24.887795233325452  19.07667422305822  -0.28311275637820615
H  23.976142159560194  19.982962970830307  -1.2065397710934287
O  24.151731747784318  20.219307056578867  2.657083380137776
H  24.238916078494693  19.959084781596072  3.6327022662970716
H  23.466360537753644  19.6167729796224  2.2936033098252846
O  22.634662508062988  18.367993710351467  1.208259874686079
H  21.769271716523164  18.268230152806233  1.0788918574269184
H  23.040688871977896  18.676347355290943  0.3180089890319584
O  24.69865016115987  16.607330649507528  1.8342098184776747
H  24.728278758251903  15.593334911140985  1.0712327719432164
H  23.87336398583807  17.04206688895285  1.6359752712190958
