15

O  25.979275978131394  18.942490874136286  0.937876056149265
H  25.759323365115005  18.031192046138603  1.2482691839328635
H  25.525637957030412  19.508910638961854  1.6225158246664257
O  24.056110619066768  19.07620750795547  -0.8718588677596768
H  24.888238004075472  19.07690996537125  -0.28262731531914853
H  23.97759969777255  19.968652813783965  -1.201062320965991
O  24.157240913774945  20.214720849392304  2.6863781766365618
H  24.189657223025048  20.070799788908168  3.174633413648086
H  23.428927772175808  19.57891017636694  2.287593929587288
O  22.642920047273865  18.36914688685558  1.2086427180920787
H  21.63772254346498  18.25210672828001  1.0622561881724673
H  23.04011647005212  18.67346883108727  0.32741929992437024
O  24.700558910023982  16.596549005208974  1.8271756550766605
H  24.720007213083377  15.757353126225768  1.1920530918009489
H  23.85172570546887  17.049132135098755  1.6272418713666132
