15

O  25.97930530781996  18.942429353159003  0.9378337321741425
H  25.759368925967507  18.031577387161704  1.2481773812550072
H  25.525150949868816  19.509455745455497  1.6233417954441633
O  24.056089055577896  19.076353759281382  -0.8719220123862896
H  24.888327671421386  19.07697162626646  -0.28257686787233993
H  23.97784964740131  19.966269949414627  -1.200147707793656
O  24.158074399404104  20.214015990957687  2.690844539409322
H  24.182141760195886  20.087839753726193  3.104732315922767
H  23.423332400871775  19.573258539094763  2.2867645845185023
O  22.643431721819507  18.369208034664844  1.2086581711074251
H  21.62960296737581  18.251081182993342  1.0611938862012118
H  23.040022548394138  18.673271969601814  0.3280608499117653
O  24.700468728361315  16.597208839410467  1.8276249309227703
H  24.720551748597273  15.747005313930062  1.1844519404344405
H  23.852566656380347  17.049104157615215  1.6277088499277155
