15

O  25.979372861221375  18.944501360210328  0.9317617261500691
H  25.698396968002005  18.054495870831463  1.276310021190764
H  25.598687860998314  19.54750622429895  1.6220016650203732
O  24.06366059205102  19.07498989882669  -0.8767636375694874
H  24.889347708870336  19.09530626692564  -0.2790723746023375
H  23.945113736088757  19.988768610802353  -1.1863327995326771
O  24.163029202958004  20.216227819319904  2.6592588470914666
H  24.05449608871988  19.89522481498367  3.592215478096368
H  23.471617744936303  19.68912219091788  2.164405537394544
O  22.637852905922657  18.382485241557305  1.2316804556264482
H  21.704048829754704  18.13738267508411  1.060025764860534
H  23.031380489511687  18.659938561664713  0.33430475605031856
O  24.683680117230875  16.59311790858425  1.8248523470934903
H  24.95697463941706  15.780818543675194  1.2984217015505422
H  23.80396427979519  16.92513687834589  1.4525449360308225
