15

O  25.979418338091605  18.944774920245383  0.9307003471750807
H  25.68828812933567  18.058765182636705  1.2808916913892248
H  25.610375837831366  19.554483928348777  1.6227419425237688
O  24.064897357392855  19.074933215297808  -0.8776442438310685
H  24.889622327015392  19.09843397807991  -0.27842943703606043
H  23.939949358770217  19.989738379269415  -1.1829632661214566
O  24.164827403451007  20.215774122539887  2.659205321606711
H  24.024453770173192  19.883002284147615  3.5919113911124296
H  23.473137369092353  19.70183922273753  2.143044793626968
O  22.637520056909764  18.38476944848352  1.2355355315641896
H  21.706983634713822  18.117236454264795  1.058591725670623
H  23.029830571096966  18.6574866552755  0.336093882058705
O  24.68077680343602  16.59320589334829  1.8249144049424053
H  24.997013745986568  15.774381634287726  1.3085486518089657
H  23.79684499309439  16.90444302473687  1.4238957587026262
