15

O  25.979236430610687  18.943680680105164  0.9349458630750346
H  25.728723484001  18.04168793541573  1.262565010595382
H  25.563623930499155  19.526573112149475  1.6197808325101866
O  24.05995029602551  19.075159949413347  -0.8741218187847437
H  24.888523854435167  19.08592313346282  -0.28100118730116874
H  23.96060686804438  19.985859305401178  -1.1964413997663386
O  24.157634601479003  20.217588909659952  2.6594194235457334
H  24.14462304435994  19.931892407491837  3.593127739048184
H  23.46705887246815  19.65097109545894  2.228487768697272
O  22.638851452961326  18.375632620778653  1.2201152278132241
H  21.695244414877354  18.197821337542056  1.0643278824302669
H  23.036030244755842  18.66729428083236  0.32893737802515927
O  24.692390058615437  16.592853954292124  1.8246661735467453
H  24.83685731970853  15.800129271837598  1.268040850775271
H  23.825322139897594  16.987218439172945  1.5384924680154113
