15

O  25.98583215058954  18.944869642177014  0.9398954180439351
H  25.652363536959776  18.0298918082858  1.1775676507879032
H  25.510910649280998  19.51025535224203  1.6049920430299132
O  24.043687439574455  19.088189250206796  -0.8680513916484206
H  24.83744341110657  19.051762203978168  -0.22388611117464827
H  24.120683821461682  19.988692746713536  -1.2564042131433253
O  24.149328719498097  20.216607976320994  2.6617023695829265
H  24.268010198700956  20.003062090816425  3.60137158334768
H  23.469355076635026  19.604094817401553  2.2924753004449685
O  22.637123109688194  18.384880488432138  1.222828256791638
H  21.689837196560692  18.321031899465705  0.989518698304377
H  23.133622779672486  18.108628291772614  0.182229088810141
O  24.69986050534264  16.587640830376913  1.8298459930446211
H  24.71836704530635  15.819952935450116  1.2348055650960412
H  23.940133952811543  17.163877837790007  1.4872553835172804
