15

O  25.98508413385737  18.94464634860179  0.9396992604834978
H  25.66421758840869  18.029779385142934  1.1854845784781363
H  25.512871688249774  19.509742535326247  1.606388482693256
O  24.045082168510625  19.08676044462826  -0.8684323481319295
H  24.843027476539174  19.054515292425037  -0.23044654326635403
H  24.104618952410384  19.988054663745363  -1.2508648561274003
O  24.14965219510942  20.21686820117422  2.6614665507403794
H  24.264314621067516  19.999228525170153  3.6005569629757153
H  23.468593401453354  19.605064282134716  2.2924858226177496
O  22.63742609750062  18.38309154527301  1.2212417838147893
H  21.68945973027617  18.314057243969515  0.998308842937224
H  23.123295804153322  18.171519592686767  0.1979336344979031
O  24.69999822697124  16.58819073811281  1.8292497715952187
H  24.718186262494534  15.819895942622326  1.2351227245298144
H  23.929750180276926  17.15114696692445  1.502498118682027
