15

O  25.975359916339144  18.94174353212388  0.9371492121978139
H  25.818320257244565  18.028317884285666  1.288404638451165
H  25.538365194843887  19.503075915421093  1.6245421983167152
O  24.063213644680857  19.068185972107337  -0.8733847824175441
H  24.915620327163015  19.090305442234353  -0.31573216045852875
H  23.89577565474351  19.979759585159144  -1.1788532149203748
O  24.15385737805661  20.220251124266113  2.658400905787263
H  24.216272111832797  19.949392171768654  3.589966898140178
H  23.45869162409165  19.617667323665803  2.2926226108639063
O  22.641364939062115  18.35983528420437  1.2006176351157567
H  21.684552668577396  18.223386722519052  1.1125807231642348
H  22.98904512240417  18.98910650457077  0.4020927284388106
O  24.701788608142976  16.595339538679497  1.8214988927529885
H  24.715836085940918  15.819155035861046  1.239245797168866
H  23.79476113732692  16.985645645672218  1.7006536758237334
