15

O  25.983588100393025  18.944199761451344  0.9393069453626234
H  25.687925691306518  18.0295545388572  1.201318433858602
H  25.51679376618733  19.508716901494687  1.609181362019942
O  24.047871626382967  19.083902833471196  -0.869194261098947
H  24.854195607404378  19.06002146931878  -0.24356740744976552
H  24.072489214307787  19.986778497809023  -1.2397861420955503
O  24.150299146332067  20.21738865088066  2.6609949130552843
H  24.25692346580064  19.991561393877618  3.5989277222317866
H  23.467070051090015  19.607003211601036  2.292506866963312
O  22.638032073125462  18.37951365895476  1.218068837861092
H  21.68870479770713  18.300107932977138  1.015889132202918
H  23.10264185311499  18.297302194515076  0.22934272587342733
O  24.700273670228427  16.589290553584608  1.8280573286964141
H  24.717824696870903  15.819781956966745  1.2357570433973608
H  23.908982635207696  17.125685225193337  1.5329835890115202
