15

O  25.991036904602943  18.94004998541248  0.9370825578195972
H  25.735548999647364  18.050761293574084  1.2991957519603532
H  25.494455480964113  19.549813524862984  1.5487030030028508
O  24.041737666420648  19.067699919728614  -0.8611773318597258
H  24.890182068109006  19.03778544006616  -0.29742455628327924
H  23.993297523133464  19.980555703479805  -1.1903775704552104
O  24.13125856062133  20.211759928681175  2.656942240753754
H  24.51577823288394  20.166701663247373  3.6181488504656896
H  23.457380140525554  19.433989199908375  2.5485121963224815
O  22.64461858466185  18.392147689442766  1.1939913220391039
H  21.706448283662656  18.228874758882984  0.9934794197666023
H  23.06965600817614  18.75067137092454  0.3367642526297468
O  24.688427561017978  16.590296927623534  1.828347289621747
H  24.956334050703106  15.787176845884437  1.2892022361556505
H  23.81926500082709  16.93604426436923  1.4362625085572418
