15

O  25.988052678452206  18.94075248905936  0.9373444183646978
H  25.741424249735523  18.045290970180563  1.2866018139702649
H  25.502981610723083  19.538770143647238  1.565917252252138
O  24.045363249815484  19.06960743979646  -0.8637529988947943
H  24.889561551081755  19.047474080049618  -0.29380091721245943
H  23.9889981423501  19.981154277609853  -1.194420677841408
O  24.136503920465998  20.213557446510883  2.6576016805653158
H  24.445521174662954  20.117166247435527  3.6121216378492673
H  23.458660105394166  19.478696899931283  2.4845266472418612
O  22.643426438496384  18.386305767082074  1.197630991529328
H  21.70144621274699  18.236221069162237  1.0122670648249517
H  23.062412006132103  18.731666028193406  0.3334656894723101
O  24.691595670763483  16.590870195717653  1.8273804672163103
H  24.89643553802733  15.795242634413327  1.276316677116738
H  23.826118750620317  16.964358198276923  1.4833068814179313
