15

O  25.967163095397055  18.94567001458752  0.9391774421804029
H  25.782551000352633  18.006998706425918  1.1984442480396469
H  25.562664519035884  19.461466475137016  1.6864169969971494
O  24.07074233357935  19.082960080271388  -0.8817826681402743
H  24.885217931890992  19.115294559933844  -0.2684354437167208
H  23.958902476866534  19.985344296520193  -1.2227224295447896
O  24.17322143937867  20.226140071318824  2.662217759246246
H  23.953721767116058  19.770418336752627  3.5699311495343107
H  23.467619859474443  19.791650800091624  2.0366278036775185
O  22.63508141533815  18.345412310557236  1.2231086779608962
H  21.666431716337346  18.287645241117016  1.1437805802333978
H  23.011703991823858  18.59862862907546  0.31037574737025325
O  24.713772438982023  16.59488307237647  1.8206127103782532
H  24.477145949296897  15.851703154115564  1.1861177638443494
H  23.874094999172907  17.162555735630768  1.8126174914427584
