15

O  25.991855778194868  18.952591590237166  0.9231965724459278
H  25.62510340632075  18.099056166215693  1.379236266845554
H  25.470770995275874  19.338714381249282  1.7367434695800725
O  24.067952490153463  19.097777066661212  -0.8750341119797045
H  24.81703118668497  18.72986279435398  -0.16217033548371815
H  23.789957019476976  19.92641554771463  -1.3267754439418702
O  24.147865955336883  20.215539147741147  2.664454709444296
H  24.29609394825496  20.019860785678947  3.6020895623824134
H  23.480705195702697  19.64397503070121  2.194993479798617
O  22.623570041731128  18.370376205091276  1.1938381083488432
H  21.662210188462492  18.201758357154898  1.2571694407794927
H  23.352965362996954  18.684925325355728  0.440191435869713
O  24.704742602918756  16.592028090482234  1.8267327432187528
H  24.680527811035297  15.822233492405227  1.2294286804828387
H  23.84548897481318  17.037257165208317  1.580684659937125
