15

O  25.976112336762515  18.937899992769545  0.9358663790007603
H  25.735477706958026  18.005604905100068  1.1789992019262547
H  25.591075816269253  19.469701319786815  1.6825321558752249
O  24.085534034669298  19.072682337747263  -0.8697183485385312
H  24.86686147215251  19.233126323469392  -0.2109985288956026
H  23.78588654421712  19.96082003683468  -1.202474373872227
O  24.142336376451468  20.224391952622582  2.658735160844766
H  24.30604688715397  19.982702295897873  3.5882008385725928
H  23.55562593454156  19.496677310261358  2.296392943280944
O  22.63460669740423  18.383743634844603  1.1928994415222536
H  21.651634094919007  18.155150053320043  1.3667271960609435
H  22.856251222806332  18.61590551060658  0.20620547704245726
O  24.701446193357402  16.588215120772865  1.8298331449753307
H  24.714684414090204  15.81967749206436  1.2363774064611608
H  23.893053073423438  17.103995016063088  1.5606499385157742
