15

O  25.97781957289822  18.94073428261552  0.9371598767146115
H  25.748947588696296  18.0189049593286  1.2188968008255379
H  25.555352492686822  19.490237708480063  1.6454052096608107
O  24.06879458628684  19.07419528760597  -0.8707250065165134
H  24.878769202351076  19.143648424344025  -0.25210222666954396
H  23.894579947521624  19.973465730072004  -1.2048033030880974
O  24.147995589907772  20.221282265409677  2.6592179260763285
H  24.26530580878027  19.974620983956232  3.591537502245397
H  23.502411114803525  19.563044561540583  2.294208404263262
O  22.637602870316098  18.375192986361974  1.2018426177952515
H  21.671523183536717  18.214070022851445  1.196385941168976
H  22.961639095488426  18.64947379025996  0.2732709187324817
O  24.701248368581744  16.5907150517598  1.8267742049894276
H  24.715859034610087  15.819541782313298  1.2371103170547832
H  23.866554174324328  17.072740721169893  1.5971014022210461
