15

O  25.981660854203557  18.94711143476896  0.9400702465707769
H  25.779254822607403  18.048830081342803  1.3086663983489244
H  25.474975014626352  19.53644458303987  1.5618695806783789
O  24.031130827426313  19.077599424788062  -0.8729899869669733
H  24.905561595297847  18.94232315131195  -0.34458554666091207
H  24.139140104956752  20.001918539855986  -1.2100433938238055
O  24.160728820184456  20.21428546918064  2.6603041478473437
H  24.173638382439453  19.956438032087537  3.5990449955092063
H  23.38267777039295  19.712370876918836  2.2892931914734764
O  22.644344259367802  18.355954027276056  1.221964764409497
H  21.71627363292657  18.346639954297107  0.8131181176620483
H  23.19876180902314  18.725002419480074  0.4241681625350367
O  24.700803262836512  16.5963398964804  1.8198915900211454
H  24.718501930779826  15.819236435373407  1.2387593658904335
H  23.806931651351338  17.002418557660206  1.679117195557908
