15

O  25.976965954830366  18.93931713769253  0.9365131278576859
H  25.742212647827163  18.012254932214333  1.1989480013758964
H  25.573214154478038  19.47996951413344  1.6639686827680178
O  24.077164310478068  19.073438812676617  -0.8702216775275223
H  24.872815337251794  19.18838737390671  -0.23155037778257329
H  23.840233245869374  19.96714288345334  -1.2036388384801622
O  24.14516598317962  20.22283710901613  2.6589765434605472
H  24.28567634796712  19.97866163992705  3.5898691704089947
H  23.52901852467254  19.52986093590097  2.2953006737721027
O  22.636104783860162  18.37946831060329  1.1973710296587525
H  21.661578639227862  18.184610038085744  1.2815565686149597
H  22.90894515914738  18.63268965043327  0.23973819788746947
O  24.70134728096957  16.589465086266333  1.8283036749823791
H  24.715271724350146  15.819609637188828  1.236743861757972
H  23.879803623873883  17.08836786861649  1.5788756703684101
