15

O  25.97653914579644  18.93860856523104  0.9361897534292232
H  25.738845177392594  18.0089299186572  1.1889736016510757
H  25.582144985373645  19.47483541696013  1.6732504193216213
O  24.081349172573685  19.07306057521194  -0.8699700130330268
H  24.86983840470215  19.210756848688053  -0.22127445333908793
H  23.813059895043246  19.963981460144012  -1.2030566061761945
O  24.143751179815542  20.223614530819358  2.6588558521526564
H  24.295861617560544  19.980681967912464  3.589035004490794
H  23.54232222960705  19.513269123081162  2.2958468085265236
O  22.635355740632196  18.381605972723946  1.195135235590503
H  21.656606367073433  18.169880045702893  1.3241418823379516
H  22.882598190976857  18.624297580519926  0.22297183746496335
O  24.70139673716349  16.5888401035196  1.8290684099788548
H  24.714978069220177  15.819643564626594  1.2365606341095665
H  23.88642834864866  17.09618144233979  1.5697628044420922
