15

O  25.98151367718887  18.94373845977272  0.9343938909079743
H  25.74928265422198  17.97281482750842  1.2641963514082875
H  25.500510412424678  19.547506925821196  1.6623033895493482
O  24.056364488906127  19.075358295877276  -0.8712746205061126
H  24.884140049887783  19.076921155050368  -0.2861788516559415
H  23.976557954949747  19.98192895551708  -1.2060057236960695
O  24.145717375537714  20.21299868574124  2.6569317319530477
H  24.229552343838076  19.970275476993415  3.573852206898505
H  23.570329574211595  19.704448145007976  2.3538323629497264
O  22.639089333881596  18.36845286757242  1.209398108962154
H  21.6919881928229  18.258626214604956  1.0711126443365304
H  23.0495213496494  18.680351666472507  0.30749206512371713
O  24.694256223524572  16.595636392469167  1.8224521313672728
H  24.7128627152663  15.834118763283518  1.2465439182693023
H  23.958379019567086  16.98695204517419  1.6474504547273627
