15

O  25.971858968433384  18.94022462068184  0.9493383272760771
H  25.78835203733406  18.197075517474747  1.2026909457751378
H  25.61270876272596  19.380039222536414  1.483329831351956
O  24.055866533281616  19.075245112368176  -0.8720961384816622
H  24.898379850336646  19.075396534848903  -0.2731834450321757
H  23.97472613515075  19.986013133448754  -1.2081828289117913
O  24.17180787338685  20.23680394277628  2.6675248041408577
H  24.25034296848576  19.963413569019757  3.654603379304485
H  23.139011277365213  19.33793556497607  2.1087829111508207
O  22.642131998355207  18.36976139728275  1.2060056731135385
H  21.669795421531298  18.257161356185133  1.0611820669904086
H  23.014155951051794  18.657545000582473  0.37180380462884866
O  24.721631329426287  16.583450822592503  1.8305636058981818
H  24.728371854201107  15.775403710149444  1.2110082451920927
H  23.51158294129874  17.23634386447743  1.5554086358179122
