15

O  25.97906236256614  18.94276768429744  0.9383637269028096
H  25.759707156988917  18.03143913080163  1.2483896852051561
H  25.529595548965865  19.503783527313082  1.6153160428864064
O  24.05309524182457  19.096321496310576  -0.8803380845466929
H  24.898842566852245  19.087239519194675  -0.27801097123552093
H  24.01401249921021  19.639096000841764  -1.072507958601755
O  24.15204888612571  20.219105172289538  2.658654529680863
H  24.236366589495073  19.964990662219346  3.60871317674513
H  23.463898237296945  19.613963471464494  2.2925320245411362
O  22.640691485406315  18.368797236265006  1.2089349493229433
H  21.67034562590225  18.256183129677353  1.0668137746331217
H  23.0432822941178  18.677281115495244  0.3198655183364245
O  24.701057396360824  16.59271476576344  1.8245645544831985
H  24.71683044042039  15.817460820981175  1.2362026665832357
H  23.847180250689025  17.049201089845674  1.6246073737088855
