15

O  25.97913763743386  18.94295231570256  0.9378962730971905
H  25.75839284301108  18.026320869198372  1.249250314794844
H  25.527524451034132  19.507496472686917  1.6198039571135938
O  24.05938475817543  19.054338503689426  -0.8626219154533071
H  24.876557433147752  19.065840480805328  -0.2878490287644791
H  23.938187500789788  20.326803999158233  -1.340592041398245
O  24.15243111387429  20.21879482771046  2.660505470319137
H  24.233133410504923  19.972129337780654  3.5793668232548703
H  23.461101762703052  19.611676528535504  2.2926079754588637
O  22.639008514593684  18.368762763734996  1.2081650506770567
H  21.702534374097752  18.260336870322647  1.0704462253668783
H  23.038077705882195  18.672018884504755  0.32727448166357553
O  24.701142603639177  16.592465234236563  1.8243954455168017
H  24.71664955957961  15.821419179018825  1.2391173334167642
H  23.846179749310974  17.049398910154324  1.6242726262911147
