15

O  25.979047307592595  18.942730758016417  0.9384572176639334
H  25.759970019784486  18.032462783122284  1.2482175592872187
H  25.530009768552212  19.503040938238318  1.614418460040969
O  24.051837338554392  19.104718094834805  -0.8838813183653701
H  24.903299593593143  19.091519326872543  -0.2760433597297293
H  24.029177498894295  19.50155440117847  -1.018891142042457
O  24.151972440575992  20.21916724120535  2.658284341553208
H  24.237013225293104  19.963562927107084  3.6145824474431816
H  23.46445753221572  19.61442086005029  2.292516834357591
O  22.64102807956884  18.368804130771007  1.2090889290521205
H  21.663907876263153  18.255352381548295  1.0660872844863705
H  23.044323211764922  18.678333561693343  0.31838372567099427
O  24.701040354905157  16.592764672068814  1.824598376276478
H  24.716866616588547  15.816669149373643  1.23561973321653
H  23.847380350964634  17.049161525783944  1.6246743231924399
