15

O  25.97914516492063  18.94297077884307  0.9378495277166286
H  25.758261411613294  18.025809043038045  1.2493363777538127
H  25.52731734124096  19.5078677672243  1.6202527485363125
O  24.060013709810516  19.05014020442731  -0.8608502985439686
H  24.8743289197773  19.063700576966394  -0.2888328345173749
H  23.930605000947747  20.39557479898988  -1.367400449677894
O  24.152469336649148  20.218763793252556  2.6606905643829646
H  24.23281009260591  19.972843205336783  3.5764321879058447
H  23.460822115243662  19.611447834242608  2.292615570550636
O  22.63884021751242  18.368759316481995  1.208088060812468
H  21.7057532489173  18.260752244387177  1.070809470440254
H  23.037557247058636  18.671492661405708  0.32801537799629066
O  24.70115112436701  16.592440281083878  1.824378534620162
H  24.716631471495536  15.82181501482259  1.2394088001001171
H  23.846079699173167  17.04941869218519  1.6242391515493375
