15

O  25.979130109947086  18.942933852562046  0.9379430184777524
H  25.758524274408863  18.026832695358696  1.2491642518358752
H  25.527731560827306  19.507125178149533  1.6193551656908751
O  24.058755806540344  19.05853680295154  -0.8643935323626457
H  24.8787859465182  19.06798038464426  -0.2868652230115833
H  23.94577000063183  20.258033199326587  -1.3137836331185961
O  24.15239289109943  20.21882586216837  2.6603203762553096
H  24.233456728403937  19.97141547022452  3.5823014586038964
H  23.461381410162442  19.611905222828405  2.292600380367091
O  22.639176811674947  18.368766210988  1.2082420405416454
H  21.6993154992782  18.259921496258116  1.0700829802935026
H  23.038598164705757  18.672545107603806  0.32653358533086047
O  24.70113408291134  16.592490187389252  1.8244123564134413
H  24.71666764766369  15.82102334321506  1.2388258667334113
H  23.84627979944878  17.04937912812346  1.6243061010328916
