15

O  25.98097877479885  18.943878342217506  0.9344922443853325
H  25.738034946884262  18.04599334461511  1.288419820346295
H  25.514906158332725  19.468362810133247  1.6409373810325087
O  24.055623728028124  19.074125369773963  -0.8713093553289598
H  24.892177630713203  19.09564512111314  -0.290305191134306
H  23.986248102413864  19.985937126677836  -1.2003843825628682
O  24.15226658775399  20.219415734099734  2.659398426303232
H  24.234288089644142  19.96630240407966  3.593536609254799
H  23.4636889079837  19.610041438160245  2.2947878561248585
O  22.640574257848037  18.368627707824107  1.2093915948497147
H  21.68760519614779  18.26130161060187  1.0585020567094545
H  23.024722930142946  18.674532581690386  0.3169825077963621
O  24.700894045877504  16.59224904475256  1.823819906790724
H  24.71968639174601  15.81700808667656  1.2407718838936745
H  23.849156986951634  17.055308658521298  1.6295881684408071
