15

O  25.973463675603444  18.939804973347485  0.9490432668440025
H  25.82209515934721  17.977539966154673  1.1300205389611149
H  25.56952152500182  19.617471569600255  1.5474278569024746
O  24.05808881591562  19.078943890678115  -0.8719919340131208
H  24.87426710786039  19.019224636660585  -0.2608044265970821
H  23.945655692758407  19.97398861996649  -1.2250468523113953
O  24.152160236738027  20.2175527977008  2.660124721090303
H  24.236135731067566  19.975332787761023  3.5955501722356034
H  23.4589332760489  19.621155685519266  2.285916431625425
O  22.63767722645589  18.369236876527687  1.206025215450856
H  21.682944411556633  18.24913516819439  1.099013829871636
H  23.088551209571154  18.675002254928845  0.3433324766109137
O  24.701717862367488  16.593612865742326  1.8264602796278284
H  24.707900824761975  15.82673573997032  1.2283243483189763
H  23.839249039145095  17.0312740244361  1.608995494677579
