15

O  25.96782735120689  18.93674994669497  0.9599565336880049
H  25.885140318694422  17.926199932309345  1.01122107792223
H  25.61048305000364  19.729303139200507  1.477295713804949
O  24.059937631831243  19.082557781356233  -0.8725038680262416
H  24.860834215720782  18.961909273321165  -0.23867885319416418
H  23.915211385516816  19.965027239932986  -1.2435437046227906
O  24.152080473476055  20.2161555954016  2.6606694421806067
H  24.23752146213513  19.98210557552205  3.597060344471206
H  23.4553665520978  19.629491371038533  2.2792628632508496
O  22.63550445291178  18.369693753055373  1.2035004309017119
H  21.679448823113265  18.24001033638878  1.1293976597432724
H  23.13642241914231  18.67535450985769  0.36309495322182733
O  24.70233572473498  16.594635731484647  1.8284405592556567
H  24.699061649523948  15.834031479940641  1.2189886966379526
H  23.831818078290187  17.013248048872203  1.5935509893551583
