15

O  25.986615099195408  18.94693336887002  0.92357897754133
H  25.67498978753705  18.09733337846044  1.40721928138518
H  25.473944633330902  19.356531240532995  1.7110695241300342
O  24.053774912112505  19.070511479095845  -0.870797421315839
H  24.90561052285281  19.152960484452556  -0.3124307645372239
H  24.01669240965545  19.99489850671134  -1.181887530251473
O  24.15234635101596  20.220812936398932  2.658853705212929
H  24.232902358576577  19.959529616318633  3.592026437019196
H  23.467255631934798  19.601705752640978  2.3014414244994335
O  22.642747031392148  18.36817083129642  1.2119163793988588
H  21.691100784591157  18.27042644240748  1.0281182268378184
H  22.97685172057179  18.674180326761537  0.2972200311854485
O  24.700276183510017  16.591226179010235  1.8218396271628956
H  24.728525566984036  15.80971234670624  1.2501075355746982
H  23.856587947806542  17.073334634085196  1.645032673763228
