15

O  25.98510272810385  18.94080024288014  0.9498575765731003
H  25.753065554817514  18.029642529757485  1.2597776728275394
H  25.530431136134304  19.50906910479234  1.6214047577427118
O  24.05471607315053  19.07901798077199  -0.88859076009788
H  24.88285304661284  19.077527309212474  -0.2988250085392276
H  23.9775839337469  19.989400034693304  -1.2172835945602105
O  24.15178265076624  20.217633437997097  2.6568541640971834
H  24.24807445726326  19.963660282094192  3.5891522554561726
H  23.470950365185104  19.59959823019099  2.29243386767597
O  22.63732049917548  18.36137350404599  1.2177731608701965
H  21.674585633533756  18.30424264512933  1.0985328367969478
H  23.030083172993958  18.670149085279306  0.33247769950610134
O  24.699928577622423  16.598232810910233  1.821852646914548
H  24.729135770601633  15.819238100221467  1.243248237625262
H  23.837349904193786  17.037557343448707  1.6209070421853944
