15

O  25.955089087584586  18.95109902847944  0.8912196937075989
H  25.78298778072994  18.02582988097007  1.2049893086898427
H  25.52107545546278  19.49192358083064  1.602180969029153
O  24.062335707397875  19.06057807691204  -0.8030369596084803
H  24.907087813548635  19.07259076315011  -0.2193499658430897
H  23.9701642650124  19.957149861226785  -1.163615621759158
O  24.154069396935036  20.224216248011604  2.670483343611266
H  24.181452170946947  19.98815887162323  3.61359097817531
H  23.42869853925958  19.665707079236046  2.293114529296119
O  22.649968003298067  18.39840598381604  1.1716573565192143
H  21.73385746586498  18.07432941948268  0.9490186528122089
H  23.08306730802415  18.692653658882772  0.2879392019755947
O  24.70578568951031  16.570018756359072  1.834989412341809
H  24.66715691759348  15.820247599114133  1.2153070494989517
H  23.88400038322485  17.09627062620516  1.638571831258423
