15

O  25.95339024195471  18.950992116449374  0.939618886697152
H  25.827306655530737  18.019302799474502  1.242431265168519
H  25.796754645853316  19.476642847339303  1.828471628064532
O  24.050171975626032  19.081011265174077  -0.8510833947238654
H  25.170213606267296  18.94591223142307  -0.713859480477311
H  23.98993082508255  19.97703756759366  -1.2159303572280182
O  24.148300944881047  20.213929630266712  2.6545715112068886
H  24.30049558072939  19.97963059676967  3.5858047142029776
H  23.37850899792921  19.675927999651147  2.3326053579586383
O  22.637229741165324  18.373702786077292  1.1993718515782057
H  21.671872150890724  18.238703693053576  1.1818973988035277
H  23.065332855728126  18.573725839864487  0.29672463000778915
O  24.6992493929301  16.59378966911471  1.8228663398828497
H  24.74726815110497  15.821237610860246  1.2379618026641332
H  23.82932454360889  17.03219952912519  1.6451265866296287
