15

O  25.97053008065157  18.945570705483124  0.9386262955657173
H  25.781802218510244  18.025687599824835  1.2466904217228396
H  25.61795821528444  19.495974282446433  1.6878638760215108
O  24.054217325208676  19.077223755058025  -0.8646811315746218
H  24.9818712020891  19.03299741047436  -0.4265731601591037
H  23.980710275027516  19.980979189197885  -1.2096767857426727
O  24.150926981627016  20.217276543422237  2.6579105037356294
H  24.256665193576463  19.972250198923224  3.591294904734326
H  23.434502999309736  19.633855999883714  2.305915119319546
O  22.63897658038844  18.370420928692432  1.2054906171927353
H  21.68158405029691  18.25174123101786  1.106385799601176
H  23.048897618576042  18.64100861328816  0.31462154333592973
O  24.7004831309767  16.592989889704903  1.8239421132942832
H  24.726916050368324  15.820039203620082  1.2377606008880444
H  23.84089484786963  17.04359984304173  1.631335528876543
