15

O  25.993383198914046  18.938342157528123  0.9373028407238045
H  25.721129635816254  18.03420066695861  1.2523692971286007
H  25.379562974525935  19.521749529255942  1.5003868732974825
O  24.059611124652204  19.07217374156996  -0.8828114473756303
H  24.73074799651817  19.14911098254274  -0.04352473306816057
H  23.968416208287472  19.986234684670187  -1.2013386904288788
O  24.154428363954974  20.221739094296268  2.662362493773951
H  24.198224677372558  19.962409668461294  3.598615158776124
H  23.509161667817104  19.577760000193805  2.270328134467423
O  22.641305699352596  18.36604511884595  1.2136489713454413
H  21.694533249505156  18.269124614970234  1.0057036673313733
H  23.02698396903993  18.730718977853062  0.3384840944401172
O  24.702128115038832  16.591923517158495  1.8253764778428614
H  24.699779916052798  15.818441327299864  1.2374923318532594
H  23.85632192021728  17.058800261597117  1.6129474518724287
