15

O  25.95624688173752  18.950088547955  0.9394534548419129
H  25.81972258269399  18.020366932866224  1.2431411245942392
H  25.766955240758502  19.47986475319049  1.8050370027240283
O  24.050846200556474  19.080380013488067  -0.8533496841989915
H  25.13882320557093  18.960426427931615  -0.665978427090943
H  23.988394066740042  19.977694504527697  -1.214888095313794
O  24.14873861767204  20.21448744912597  2.655128009961679
H  24.2931905162039  19.97840053046193  3.5867197459582023
H  23.38784133149263  19.668915999689908  2.3281569848521233
O  22.637520881035844  18.373155809846484  1.2003916458472939
H  21.673490800791757  18.240876616047625  1.1693121322698026
H  23.06259364953611  18.5849396354351  0.2997074488958126
O  24.69945501593787  16.59365637254641  1.823045635451422
H  24.743876134315528  15.821037876320219  1.237928269034785
H  23.831252927652347  17.03409958144461  1.6428280770041144
