15

O  25.983520948710513  18.937420909888413  0.9442254175083055
H  25.689685631819124  18.01989275476697  1.1972203406249802
H  25.543352947517274  19.4908342646948  1.6373000707877354
O  24.058859045618775  19.07627280596425  -0.8682380791012263
H  24.911441013452293  19.210434187504983  -0.31304968429461366
H  23.809810591789915  19.938697478545652  -1.2823842077596237
O  24.151579581962878  20.218170905083504  2.656766674340764
H  24.25636154245141  19.964425557064615  3.5883987238609203
H  23.445757710810902  19.621243359549563  2.30603034905564
O  22.638876989743608  18.3705930365835  1.2125571748106605
H  21.69850550421613  18.2850209743427  0.9601187684382596
H  23.12250645006397  18.651477183871467  0.35337163332091304
O  24.703373406608787  16.59328051313967  1.8244663261556278
H  24.7191717074356  15.822788348800858  1.2339957434781668
H  23.820720162198082  17.016216833657573  1.6698876886267329
