15

O  25.982415711532884  18.938780682416308  0.9427015631312291
H  25.70702672386434  18.02213956607523  1.2101202554687351
H  25.539654710637954  19.4945356985211  1.6323650530908016
O  24.05820428421408  19.07603710447319  -0.8690485593259197
H  24.90550576008922  19.17696064062874  -0.30551976322096025
H  23.851382943842435  19.94976060890924  -1.2634256558197177
O  24.151744686472156  20.218365678812628  2.657470005755573
H  24.250958656838556  19.96545916779846  3.5898090428956904
H  23.449943283108176  19.619137519662175  2.3026652617917303
O  22.639120242307705  18.370139777437625  1.2115553811079955
H  21.695489128162098  18.278330730757027  0.9872465763286947
H  23.102049837547977  18.6572703879036  0.3459212249906848
O  24.70280505495659  16.593107884854753  1.8244697446167208
H  24.7185637805767  15.821951261600644  1.2349118076086252
H  23.827210121648562  17.02448762524318  1.6585257664700497
