15

O  25.975784288467114  18.94693931758369  0.9335584368687709
H  25.811073276135655  18.035620433924773  1.287519744531265
H  25.517465289362043  19.516744301478898  1.6027549469091986
O  24.054275715785916  19.07462289552681  -0.8739114406740803
H  24.869894239910778  18.976119359371264  -0.2603402367790398
H  24.100817056157563  20.016139391090757  -1.1496743441802824
O  24.15273531352784  20.21953432118737  2.661689994244427
H  24.21854134316144  19.97166083220154  3.59827095710431
H  23.47505671689182  19.606502480337824  2.2824747382082697
O  22.640579757692294  18.367420222562377  1.2055446188920045
H  21.677390871837904  18.238189269242973  1.150013423671305
H  22.97931016245202  18.6920296120964  0.30121877500931526
O  24.699394945043412  16.59207211514525  1.8244902553832794
H  24.7149162194233  15.816928738399357  1.2404081923913748
H  23.866149878351436  17.07411237475682  1.5903542335299505
