15

O  25.979611870553843  18.943227391048275  0.9364544901226374
H  25.75180526874662  18.039730712790426  1.2702768074343291
H  25.52786067554012  19.487934506126763  1.631036155936176
O  24.05578487648554  19.075540201973002  -0.8712000744553988
H  24.88979997641179  19.07807739439907  -0.2872381854429575
H  23.980295035099935  19.983171984686656  -1.2071034445006292
O  24.159467025001693  20.22854985409159  2.6514461960031395
H  24.13626895152534  19.874051323068198  3.5783504590754767
H  23.437216035879946  19.548782188248488  2.4460793397316687
O  22.640468920365745  18.37095098657535  1.207751206622534
H  21.686188619278827  18.25286131036391  1.082401661375167
H  23.05058133456797  18.655394151444124  0.3212860813849758
O  24.714768112907645  16.59967774828128  1.8372123218255088
H  24.544260004270157  15.864994222877566  1.1704702913579255
H  23.792579767157786  16.88357589578174  1.4740953855908248
