15

O  25.978792877667694  18.942639565371035  0.9391353059264176
H  25.763396838752026  18.022369572325747  1.2359459155394026
H  25.528979594675928  19.51626329632394  1.6094743064382946
O  24.056513074108675  19.0752038788162  -0.8716479553267608
H  24.886440014152925  19.07561756336056  -0.28034508873422553
H  23.973582978940037  19.982816809188005  -1.2062179332996226
O  24.147903784998984  20.213190087545044  2.6644602823981165
H  24.293838629084792  20.02526520615908  3.603453724554714
H  23.47767037847203  19.651242687050907  2.200464396160999
O  22.63947864778055  18.36747740805479  1.2090292760264796
H  21.686590828432706  18.261499213781654  1.0603670031748997
H  23.034739199259214  18.686203509133524  0.32494035116901454
O  24.692899132255413  16.588337351031235  1.816840606904695
H  24.820227997437907  15.79210746627346  1.2779738251852446
H  23.879140139705328  17.148734462530953  1.7146467686455054
