15

O  26.049528160333722  18.95280204520504  0.9306641522712477
H  25.851484554805435  18.039304797027608  1.2439931383780292
H  25.610891755374197  19.510807097442886  1.616240285845179
O  24.04401917931592  19.09001345208501  -0.9120618022092468
H  24.86344809137903  19.084892233455285  -0.3297097638095431
H  23.99577977763078  19.991021703810745  -1.2719956186713068
O  24.182636726314314  20.29533023228739  2.7285567790005705
H  24.22835751538387  20.012183955062408  3.6580837526919283
H  23.464668126009744  19.741388547974104  2.3402099244792924
O  22.480390263179594  18.371117166638516  1.156284147012538
H  21.534120511613366  18.270384616948235  0.9594385718337773
H  22.91696838629252  18.66642431011546  0.3032043657555148
O  24.770106166524098  16.49032810538537  1.8600145616790282
H  24.79274123551353  15.71843707005918  1.2707516579586158
H  23.910093021701144  16.925039388346022  1.660970954545094
