15

O  26.037790133611434  18.951145037670866  0.9319084602260397
H  25.836078795671195  18.03756733085634  1.2447976153150242
H  25.597169796145163  19.509945914535738  1.6164602382043158
O  24.046055982763267  19.08756621007084  -0.9052981685077057
H  24.867490076149192  19.083500194546072  -0.32191313650795256
H  23.992499814692316  19.98967641984229  -1.2610880155594224
O  24.17757060526193  20.282600193572826  2.717060649167142
H  24.229422929486557  20.004913295885338  3.64740979390994
H  23.46430677167479  19.719960456645087  2.332269937066077
O  22.506966885982994  18.370727638865432  1.1649951225104485
H  21.55950709301114  18.26836384745686  0.9776371431948144
H  22.9375869885771  18.66779525842955  0.3065986381295957
O  24.75860513877008  16.50737175448781  1.8540921347325237
H  24.780074362927945  15.735270891715983  1.2652363816321799
H  23.899524184750952  16.94574949028835  1.6548824621209117
