15

O  25.952860970605585  19.153198912730375  0.9993483583476629
H  25.80674089020635  18.218895107211743  1.2798131679113605
H  25.422697868430927  19.665900732734507  1.678634961552548
O  24.061479070141782  19.070027346066695  -0.8657021143640361
H  24.876646355173612  19.171915241022464  -0.2556032301657018
H  23.891102209902964  19.95969975570564  -1.227173110628851
O  24.326973680925136  20.236211013816895  2.621674752740504
H  24.522643018087628  19.9651545952254  3.5417161087737745
H  23.596603086707507  19.635899330167536  2.3290915058869675
O  22.64799456859651  18.217035935903866  1.1649576410681057
H  21.706499159614943  18.02578846913772  1.0083575169195118
H  23.040958998276825  18.55960824660134  0.2905209483963698
O  24.536216096217522  16.520184498236585  1.8451893456700263
H  24.60581172662884  15.788957095812856  1.2055270352852545
H  23.71719795421918  17.01461866416106  1.5683998941813155
