15

O  25.996592686262943  18.80263405817975  0.8973177611015581
H  25.727256073195765  17.90220326185884  1.228157888059093
H  25.59913475437938  19.39879951151033  1.5768433589649682
O  24.052747286572142  19.078865102622206  -0.8753319237573093
H  24.895069096550923  19.012956505985027  -0.3011478465561988
H  24.03276519339802  19.998450162862905  -1.192801259580766
O  24.035750879383244  20.207442657455402  2.684850164839664
H  24.04282132127491  19.970830269849735  3.628922594150817
H  23.373097942194992  19.59743377988831  2.2682223294086885
O  22.634420287602325  18.469942709397426  1.2376115726212629
H  21.673067226923372  18.41324102057485  1.1088116553869922
H  23.04049400114878  18.751344502265773  0.3456027010690868
O  24.811022602521653  16.640860334508947  1.810673769553316
H  24.790692182247444  15.839761936124763  1.259081976476497
H  23.93300136385388  17.07242089055929  1.6618000705457898
