15

O  25.982015447710488  18.919489009696626  0.931327960183593
H  25.75375101219929  18.007767210309808  1.2453763146765156
H  25.54032245906323  19.48783325191839  1.6107738931608282
O  24.055657881095357  19.075919183770367  -0.8721219872928849
H  24.888928182758487  19.065942750997504  -0.2859663077593665
H  23.98554419889967  19.98553336047715  -1.204258543263461
O  24.132825146563874  20.2170321095759  2.663791694139944
H  24.202761886879152  19.968938378308287  3.599853765691803
H  23.447599657032498  19.610255629981385  2.288512054901448
O  22.63894504793372  18.38564045156624  1.213393595436877
H  21.68421120448723  18.28409017009581  1.0753269425644987
H  23.04064900019146  18.687432417044295  0.32724211684484783
O  24.71942043375361  16.600635055751493  1.8221789615922195
H  24.729065363707907  15.822826989354127  1.2412303294127496
H  23.861066893975647  17.05315348175988  1.6306666784242985
