15

O  25.99367723855245  18.826005048483125  0.9041198009179651
H  25.73255506099647  17.923316051549033  1.2316015733825776
H  25.58737229531615  19.41660625959194  1.58362946580414
O  24.053329405476784  19.078275918851837  -0.8746899364644244
H  24.893840913792435  19.02355375498752  -0.2981115387968324
H  24.023320994498352  19.995866802385756  -1.195092716317305
O  24.05516573281937  20.209360547879502  2.68063847069972
H  24.07480943439576  19.970451891541444  3.6231088284590145
H  23.387998285162496  19.599998149906924  2.2722802745072403
O  22.635325239668607  18.453082257831188  1.2327679771843858
H  21.675296022436147  18.387410850479043  1.1021147128224935
H  23.040525000957317  18.738562085221478  0.341930584224239
O  24.792702168768045  16.632815278757455  1.8129748079610966
H  24.778366818539535  15.836374946770635  1.2555116470637475
H  23.918614469878232  17.06856740879941  1.6555733921214915
