15

O  25.9820052060125  18.946372041955133  0.9365376325722486
H  26.03216219434922  17.906459249311954  1.045105951887362
H  25.305396527403627  19.21521786365147  1.723606223633871
O  24.056865845170176  19.073283965193006  -0.8733007996178899
H  24.890727899039323  19.094773259591893  -0.28721849342426936
H  23.941032865813032  19.982250265626394  -1.1966281068433295
O  24.155134336189725  20.227198974982347  2.662516998971307
H  24.223253213947665  19.959489208567934  3.5943956515700757
H  23.372818985263567  19.7134348150254  2.3146762172570177
O  22.642408843654167  18.358352446661236  1.2122299849301819
H  21.678264665127696  18.336509121660296  1.0711320245849592
H  23.05103697303817  18.685175329395662  0.337648812716059
O  24.686268946380544  16.601413118977337  1.8375414996914996
H  24.86006553251332  15.883674954482478  1.181525047610576
H  23.877234460346546  17.071335654802002  1.4754242957365742
