15

O  25.980915753757813  18.945055026221958  0.9371347703576554
H  25.92974512146826  17.95236703081997  1.1214987199296014
H  25.389082829627267  19.324126164782168  1.6838388897711694
O  24.056631153231358  19.07405122824563  -0.8726179997611812
H  24.889592436899576  19.087935787244934  -0.2856103083901684
H  23.954183041133145  19.982512666016497  -1.200348816777081
O  24.15404896011858  20.224105609363967  2.6614156243570672
H  24.22756450871729  19.96289075535496  3.5942622822312975
H  23.40644936578973  19.675704259390876  2.306386385785636
O  22.641449277283854  18.362262779163274  1.2108499905813637
H  21.68133041570481  18.307165701037686  1.0701937653655995
H  23.047153108148855  18.68122833087229  0.33236925794753686
O  24.69183059148784  16.598104449360836  1.8326434373071874
H  24.806318457820826  15.859586846551549  1.20257565475661
H  23.86577653771659  17.063072284251252  1.531305184835359
