15

O  25.978736849248435  18.942420994755608  0.938329045928469
H  25.724910975706347  18.044182593836005  1.2742842560140797
H  25.556455434074547  19.541942767043565  1.6043042220457662
O  24.05616176935373  19.075585754350875  -0.8712524000477638
H  24.887321512620083  19.074260842551016  -0.28239393832196635
H  23.98048339177337  19.9830374667967  -1.2077902366445838
O  24.15187820797628  20.217918878127207  2.6592128751285866
H  24.23618709825654  19.96969384892901  3.5939955435537407
H  23.473710126842054  19.600243148121823  2.2898067228428727
O  22.63953014454323  18.370083444167346  1.2080900018837273
H  21.68746191685904  18.248478859792463  1.06831724692688
H  23.039385378370227  18.67333433382554  0.32181014841049266
O  24.70295388170243  16.591487110127833  1.8228473125385627
H  24.698824308435835  15.811410630689691  1.244676869048678
H  23.842860692456682  17.046545543149747  1.6430669630329284
