15

O  25.980189452254688  18.944177015733175  0.9375328622145932
H  25.861467072880956  17.982972218491984  1.1724272319577609
H  25.44487369777636  19.396731698869303  1.6573273338627017
O  24.056474691938813  19.074562736947378  -0.8721627998567087
H  24.888835462139745  19.08337747234696  -0.28453818503410105
H  23.962949824679885  19.982687599609896  -1.2028292900662485
O  24.153325376071148  20.22204336561838  2.6606813746142404
H  24.230438705230373  19.965158453212975  3.5941733693387783
H  23.428869619473836  19.650550555634524  2.3008598314713815
O  22.64080956637031  18.364869667497963  1.2099299943488182
H  21.683374249422886  18.287603420622613  1.0695682592193596
H  23.044563864889312  18.678596998523375  0.3288495547685221
O  24.695538354892705  16.595898669616503  1.8293780623843126
H  24.770487074692497  15.84352810793093  1.216609392853966
H  23.858137922629954  17.05756337055075  1.5685591109012154
