15

O  25.978535873473493  18.939127626650833  0.9372484626606958
H  25.781376800378208  18.029652800590522  1.2732107874416627
H  25.512841884458503  19.511211721140466  1.6014946878301697
O  24.04325113673324  19.059354216238166  -0.8750155580647234
H  24.908217119822275  19.34039241407696  -0.31551602320414335
H  24.13687163428831  20.027529232196954  -1.1291962928700288
O  24.144163911865846  20.207520361397602  2.6697617407718686
H  24.35117411021989  20.082763961432637  3.613097209359428
H  23.485380046230834  19.697677693449506  2.103240625910028
O  22.63019253439518  18.37025344697894  1.197702241807433
H  21.671585954228842  18.212858523217133  1.1955541145689643
H  23.232687410047095  18.68185980431863  0.4099271335397939
O  24.708835735271087  16.596816729639716  1.8318984026988792
H  24.617696684390218  15.845064033815644  1.1996385501220614
H  23.81513677085667  16.951743287629377  1.529296462577385
