15

O  25.979825305534078  18.947658765734644  0.939263405150534
H  25.730344113799443  18.027886399240757  1.2174604161464337
H  25.548769005696208  19.498476358533686  1.6382154013612107
O  24.072939967057263  19.095870293408076  -0.8669342824882128
H  24.86132084594279  18.737301181901056  -0.24103368445181572
H  23.769393613057886  19.9256338443182  -1.3060047663099632
O  24.16262354188677  20.23364524963165  2.646489190436169
H  24.085061858288707  19.821726335300895  3.5695378736807357
H  23.43308279770321  19.503717251279205  2.5359934809728215
O  22.652266741491907  18.366885568169938  1.2224971176761577
H  21.705538058848635  18.31663332729226  0.9054418526970457
H  22.793813329939447  18.66538025159033  0.21253939973455083
O  24.691154054651463  16.587155633320368  1.8149420536728698
H  24.84408140578401  15.7864948136656  1.2865447212716352
H  23.887235580327133  17.174730058762226  1.746767405257648
