15

O  25.978777641984852  18.940727215229046  0.9376262643775405
H  25.77180817164469  18.029321600337443  1.2627575928238073
H  25.519578219690572  19.508823840651694  1.6083798216172398
O  24.048817792418994  19.066200980707524  -0.8735003188941277
H  24.89942406846987  19.227312808043976  -0.30155058468808194
H  24.067969505307605  20.008423846969688  -1.1623478816400163
O  24.147625092494767  20.212418777941487  2.665398137583925
H  24.301278062982792  20.033819406532935  3.604929833919673
H  23.475574312131904  19.661310110542576  2.184381786234302
O  22.63433144822582  18.36962196970225  1.2023512810328187
H  21.677951973845055  18.232316298981218  1.1411580654679796
H  23.15039852002691  18.678769888182075  0.3729169334513108
O  24.705520420154905  16.59500527407984  1.8287190872565025
H  24.66014381965155  15.83408230503751  1.2159334572126066
H  23.828655297632384  16.993553307216786  1.5700722643299343
