15

O  25.97950294751893  18.94552598096369  0.9387596695280744
H  25.743102285444134  18.0283279995782  1.231398008970241
H  25.53978722538678  19.50166019918538  1.6290352229784504
O  24.065517759476258  19.0867412741156  -0.8689546013823405
H  24.87304491441266  18.88807398994503  -0.25965426913989764
H  23.861263118365493  19.951107691287888  -1.2618026479499795
O  24.158008634381538  20.22711402757314  2.6523073280200937
H  24.151589921271505  19.886985741833833  3.5804277076004087
H  23.446157109835116  19.55220736182178  2.427805267207123
O  22.646748189717727  18.367727537872188  1.2162983987089764
H  21.697050032693685  18.290689626273476  0.9779699181650253
H  22.90353184996636  18.669500139772406  0.2618863331858616
O  24.695574474806367  16.589570907400205  1.819181140929372
H  24.78748522543556  15.801137118703112  1.2648181784842418
H  23.869210877959517  17.118983365979012  1.6923996695875823
