15

O  25.979261179007572  18.943926392385475  0.9383818678112298
H  25.752670914177653  18.02865919983128  1.2418512035880964
H  25.533050890154712  19.504048079674153  1.6221500891913803
O  24.059951103790503  19.07989450964624  -0.8704698405529362
H  24.88183796576506  19.001153595978014  -0.27361970765595905
H  23.930165247346196  19.970213076515154  -1.2286510591799917
O  24.154547453752613  20.222215611029256  2.6566709312080374
H  24.2014859685086  19.93593029673353  3.5885950830401634
H  23.455962843934046  19.588574944728713  2.3466641068828493
O  22.64260927588709  18.368359015148876  1.2116493594835906
H  21.690684013077476  18.27123185050939  1.0323659672660102
H  22.985820739986544  18.672590055908962  0.2988965332743446
O  24.698889789922546  16.591382362960083  1.8223604563717488
H  24.745038090174226  15.812118847481244  1.2485232713936967
H  23.85569235118381  17.077173346391604  1.651623867835033
