15

O  25.97845528396971  18.938594430458096  0.937122528755081
H  25.78456634328938  18.029763200674882  1.2766951856476145
H  25.510596439381146  19.51200768130339  1.5991996432344797
O  24.041395584837986  19.057071961415044  -0.8755206377882554
H  24.911148136939744  19.37808561608795  -0.32017116937616386
H  24.159839010615208  20.033897693939377  -1.118145763280033
O  24.14301018498954  20.205887555882974  2.67121627516785
H  24.36780612596559  20.09907881306587  3.615819667839346
H  23.48864862426381  19.70980022108515  2.076193572468603
O  22.628812896451635  18.3704639394045  1.1961525620656377
H  21.669463947690105  18.20637259796244  1.2136861309359592
H  23.26011704005382  18.68288977636415  0.4222638669026215
O  24.709940840309812  16.597420548159675  1.8329581745130048
H  24.603547639303105  15.848724610075022  1.194206914425213
H  23.81063059526477  16.937806614433573  1.5157045286598687
