15

O  25.978295440937043  18.94256718007576  0.9393753696973419
H  25.762305781926006  18.047568390830527  1.243694549530571
H  25.537909862525105  19.4916843580596  1.6026455368168842
O  24.056198503697956  19.075320568040908  -0.8715484598312958
H  24.888886650037403  19.076412948316545  -0.2818470494480195
H  23.975947348350083  19.98329034816097  -1.2067314254346435
O  24.154414208154094  20.220933771419585  2.660462756015651
H  24.23648255205397  19.967988174335527  3.600769264367165
H  23.426556808596132  19.58227728499734  2.272149212350091
O  22.6401035553728  18.368889044142527  1.2082672970126154
H  21.68459060239237  18.258137928465015  1.067802451887823
H  23.037732883450197  18.672749444509165  0.32892931162542766
O  24.703381258825143  16.591574535843613  1.8251559562109092
H  24.71803242824457  15.814547078905495  1.2346986939102325
H  23.809446993477636  17.0700826516086  1.6167698484242126
