15

O  25.983122795314785  18.944324099621202  0.9319031515132905
H  25.742771090369963  17.935438045847363  1.2744472523471457
H  25.481810687374466  19.575418209701994  1.69213231591558
O  24.05644748151021  19.07537715979546  -0.871137700843521
H  24.881766749812975  19.077175258417277  -0.28834475275990246
H  23.97686325824958  19.981248259195134  -1.2056428728267825
O  24.141368959229528  20.209031142902067  2.6551662199217456
H  24.22608723973013  19.971419128322356  3.560393678164175
H  23.642215957019324  19.765533575013293  2.394673938249544
O  22.638582223135995  18.368234779287363  1.209963514936923
H  21.69568698803817  18.258870357674926  1.072767740560884
H  23.055415582749  18.68415277745418  0.29677344187286187
O  24.689693705874284  16.597667320781945  1.8211002189454548
H  24.710277858777165  15.843904605472531  1.2524665304488374
H  24.03284503261181  16.94538674195698  1.6627907578789378
