15

O  25.982318236251828  18.94403127969696  0.9331485212106324
H  25.74602687229597  17.954126436677893  1.2693218018777166
H  25.491160549899572  19.561462567761595  1.6772178527324642
O  24.05640598520817  19.07536772783637  -0.8712061606748168
H  24.88295339985038  19.07704820673382  -0.28726180220792197
H  23.976710606599664  19.98158860735611  -1.205824298261426
O  24.143543167383623  20.21101491432165  2.656048975937397
H  24.227819791784103  19.970847302657887  3.56712294253134
H  23.606272765615458  19.734990860010633  2.3742531505996354
O  22.638835778508795  18.36834382342989  1.2096808119495386
H  21.693837590430537  18.25874828613994  1.0719401924487073
H  23.0524684661992  18.682252221963346  0.3021327534982895
O  24.691974964699426  16.596651856625556  1.821776175156364
H  24.711570287021733  15.839011684378026  1.2495052243590699
H  23.995612026089447  16.966169393565586  1.6551206063031503
