15

O  25.979904559062955  18.94315281992424  0.9368846303026581
H  25.75579421807399  18.010191609169475  1.2539454504694292
H  25.519210137474893  19.5195956419404  1.632474463183116
O  24.05628149630204  19.075339431959094  -0.8714115401687043
H  24.886513349962595  19.076667051683458  -0.2840129505519805
H  23.976252651649915  19.982609651839027  -1.2063685745653565
O  24.150065791845904  20.216966228580414  2.6586972439843493
H  24.233017447946025  19.969131825664473  3.587310735632835
H  23.498443191403865  19.64336271500266  2.312990787649909
O  22.6395964446272  18.368670955857475  1.2088327029873847
H  21.688289397607633  18.258382071534985  1.0694575481121769
H  23.0436271165498  18.676550555490834  0.3182106883745724
O  24.698818741174858  16.59360546415639  1.823804043789091
H  24.715447571755433  15.824332921094506  1.2406213060897675
H  23.883913006522363  17.028517348391397  1.6321101515757876
