15

O  25.985536472503657  18.94520255939392  0.9281670424212648
H  25.733003744591944  17.87937287335578  1.2898236037554331
H  25.453761099799145  19.617285135523186  1.7368757054649282
O  24.05657197041634  19.075405455672733  -0.8709323213496336
H  24.87820679970076  19.077556413467644  -0.29159360441584387
H  23.977321213199332  19.980227214712215  -1.2050985965228522
O  24.134846334767243  20.203079828643308  2.6525179518747932
H  24.22088958356821  19.97313460531577  3.5402058850626803
H  23.750045531230917  19.85716172002127  2.4559363011992703
O  22.637821557017592  18.367907646859777  1.210811623899077
H  21.70123518086107  18.25923657227988  1.0752503848974146
H  23.0642569323984  18.68985444392669  0.280695506996579
O  24.682849929398856  16.60071371325111  1.8190723503127275
H  24.70640057404346  15.85858336875605  1.2613504487181397
H  24.144544052178894  16.88303878713117  1.6858012126063004
