15

O  25.973468086559297  18.94081026053032  0.9468475878813933
H  25.781840473482045  18.15969873581369  1.212941846713996
H  25.594009037675747  19.40795050641721  1.513158757718188
O  24.0559495258857  19.075263976286358  -0.8719592188190707
H  24.896006550261834  19.075650638215816  -0.27534934613613665
H  23.975031438450582  19.98533243712681  -1.2078199780425043
O  24.16745945707866  20.232836399937106  2.665759292109556
H  24.24687786437781  19.9645572203487  3.641144850570155
H  23.210897660172943  19.399020994981388  2.149624486450638
O  22.641624887609606  18.369543308997695  1.2065710790883077
H  21.673494216746565  18.257405499255103  1.0628371632147622
H  23.020050184151394  18.661346111564146  0.3610851813779934
O  24.717068811776002  16.58548175090528  1.8292116934763636
H  24.725786997711975  15.785189552338457  1.2169308573716278
H  23.586048954343465  17.194778561260225  1.5707489389694873
