15

O  25.97266352749634  18.94051744060608  0.9480929575787352
H  25.785096255408053  18.17838712664422  1.207816396244567
H  25.603358900200853  19.393994864476813  1.498244294535072
O  24.05590802958366  19.07525454432727  -0.8720276786503665
H  24.897193200299238  19.07552358653236  -0.27426639558415616
H  23.974878786800666  19.985672785287782  -1.2080014034771478
O  24.169633665232755  20.23482017135669  2.666642048125207
H  24.248610416431788  19.96398539468423  3.64787411493732
H  23.17495446876908  19.368478279978728  2.1292036988007297
O  22.641878442982406  18.369652353140225  1.206288376100923
H  21.671644819138933  18.257283427720118  1.0620096151025853
H  23.017103067601596  18.659445556073308  0.366444493003421
O  24.719350070601145  16.584466286748892  1.8298876496872727
H  24.727079425956543  15.780296631243951  1.2139695512818602
H  23.548815947821105  17.215561212868828  1.5630787873936998
