15

O  25.97032018212957  18.94525031342688  0.9216565442109296
H  25.7383243436964  18.036445450906434  1.2423856981832866
H  25.54402257797117  19.518181668238924  1.6083463938346647
O  24.06799453390272  19.07569327105796  -0.8593232157100914
H  24.899089031321196  19.085506842168847  -0.26754326791880634
H  23.994736071735293  19.972167365923948  -1.22523440723363
O  24.152358653056062  20.220777903679142  2.66366161604086
H  24.209318008261224  19.994069137518597  3.6066094698252478
H  23.482555311542743  19.59574639269398  2.287879779525021
O  22.6383571586267  18.357281132169504  1.205552360650629
H  21.66620940786922  18.373208922260208  1.09385224664188
H  23.043217329196118  18.67570662773502  0.326274590614277
O  24.698268444934076  16.591564980563522  1.8274449611390193
H  24.75128793187079  15.832122107573245  1.2234108927049803
H  23.82997728379361  17.019937121530855  1.6260777314047627
