15

O  26.005439453611288  18.935689059719362  0.9875503673672114
H  25.821226968910793  18.0061836472807  1.2681229054501404
H  25.482172266086483  19.468014995283223  1.6452008184960063
O  24.020976398291836  19.074240186826124  -0.907950352869726
H  24.85353290603641  19.04963947349346  -0.329090196243581
H  23.920191784794113  20.015297902228156  -1.1504967782991096
O  24.151884040831813  20.213466288962575  2.64733515187742
H  24.31104597521632  19.89203258744421  3.5563315905242567
H  23.402334065371768  19.66404082191806  2.306640661424936
O  22.644328524119896  18.40327660349149  1.2175429180481128
H  21.747131776392344  17.913413233219377  0.9929632600743594
H  23.033068012411643  18.671480116794935  0.3154562281571691
O  24.70959466519777  16.595665058309436  1.8155851165829424
H  24.61309620438763  15.781393677280265  1.2804073218850591
H  23.896788148619162  17.137388635407426  1.6195268057857122
