15

O  25.983489908935216  18.94166484328656  0.9463667278945352
H  25.769412828151797  18.025097274546784  1.2520371509083568
H  25.520828711014413  19.499369165880537  1.622166803082668
O  24.05036273304864  19.075148364471023  -0.8775583921449543
H  24.882005484339402  19.07205657891558  -0.29062336604059685
H  23.966781964132352  19.988341317038024  -1.1972077963831849
O  24.152180673471968  20.218036048160428  2.65753919197957
H  24.247465995869387  19.9558054312407  3.587755265087376
H  23.452472344228628  19.621356803653008  2.2949151102374894
O  22.64059642068665  18.37452943391525  1.2100488196746855
H  21.69655529606539  18.200785538869894  1.05601887667906
H  23.03941133540194  18.674121686132487  0.32221770469286154
O  24.702515777532962  16.59310250971824  1.8229975194304904
H  24.699466034064606  15.813098946213378  1.2447845536475097
H  23.855031358103194  17.06398143923457  1.6236211342976188
