15

O  26.001049544676075  18.9368842164328  0.9793136394726761
H  25.810864140758994  18.009966372733917  1.2649057545417837
H  25.489903555072072  19.474285829402685  1.6405940154133387
O  24.0268536652432  19.074421822355102  -0.9018719607247717
H  24.859227421697007  19.054122894577883  -0.32139683020298415
H  23.92950982066176  20.00990658519013  -1.1598389819159245
O  24.151943367359845  20.214380240802146  2.64937595989785
H  24.298329979346935  19.904787156203508  3.5626163254368803
H  23.41236172114314  19.65550401826505  2.3042955511874466
O  22.643582103433246  18.397527169576243  1.2160440983734273
H  21.737016480326954  17.97088769434948  1.0055743833952995
H  23.0343366770097  18.672008430662444  0.3168085234643076
O  24.708178887664808  16.595152548591194  1.817067597152452
H  24.630370170323026  15.787734731066887  1.2732827682375492
H  23.888436790515968  17.122707196172854  1.6203456714880935
