15

O  25.97715506344524  18.942057123985318  0.9399665516876682
H  25.764161284408253  18.06108418782821  1.2366200836377068
H  25.54159416268813  19.484624749625766  1.5893482763477216
O  24.08119035100056  19.07554849777215  -0.8550197697023887
H  24.488489349000236  19.089178335389548  -0.5483282337996117
H  23.99143082296856  19.970392696770148  -1.197250435723891
O  24.15358603653919  20.219580786630686  2.6602217754726314
H  24.235148913568796  19.970028095357076  3.5938837105251102
H  23.447205599913964  19.602277544601556  2.2837428985582138
O  22.629503767758855  18.3600839366066  1.234075994630165
H  21.657771123305874  18.25347503117837  1.0697063716217208
H  23.22143788845411  18.814197770880465  -0.07831887816999966
O  24.702845534210784  16.591915897462282  1.824932666889757
H  24.717605430868712  15.820208549900187  1.2369891280498575
H  23.824379547121776  17.05954783573666  1.6185482230807764
