15

O  25.97780337563016  18.942324749323546  0.9393543677917787
H  25.762457522938835  18.05034945855214  1.2406867224251379
H  25.537249441792085  19.491629833083845  1.5987521842318144
O  24.07287356733371  19.075475665181433  -0.8605065131349258
H  24.62155956600016  19.084965556926367  -0.45986215586640783
H  23.986320548645708  19.97457846451343  -1.2003502904825938
O  24.153137357692792  20.21937052442046  2.6600078503150875
H  24.2350159423792  19.969538730238053  3.59393580701674
H  23.452303733275976  19.605791696401035  2.286685265705476
O  22.63295251183924  18.3629826244044  1.2255673297534433
H  21.667327415537248  18.255070020785578  1.0693475810811472
H  23.161185258969404  18.767681847253645  0.0556440812200002
O  24.702263689473856  16.592140598308188  1.8247817779265045
H  24.717316953912476  15.819952366600125  1.2372127520332383
H  23.83181303141452  17.056131890491105  1.6205121487205176
