15

O  25.979748312184917  18.943127625338228  0.9375178161041107
H  25.75734623853058  18.01814527072393  1.2528866387874311
H  25.524215279103956  19.51264508345808  1.626963907884093
O  24.047923216333146  19.075257167409283  -0.8769667434325371
H  25.02077021699992  19.07232722153682  -0.1944639220667961
H  23.970989725677146  19.987135767743283  -1.2096498547587031
O  24.151791321153603  20.21873973778977  2.659366074842456
H  24.234617028810398  19.968070634880974  3.59409209649163
H  23.46759813336201  19.61633415179948  2.295512367147262
O  22.64329874408038  18.3716786877978  1.2000413351232784
H  21.695996292231378  18.25985498960721  1.0682712094594264
H  22.980427370515294  18.62813407637318  0.45753295938999994
O  24.700518155263072  16.592814700845906  1.8243291110367479
H  24.716451523043766  15.819183816699939  1.2378836239833808
H  23.85411348429274  17.045884054754445  1.6264039256397413
