15

O  25.97931610406164  18.942949208446077  0.9379259387013702
H  25.75848207951019  18.02530175690798  1.250175546262477
H  25.527111759701317  19.50797502781936  1.6206946359613643
O  24.053467738777716  19.07530572246976  -0.8733089144775124
H  24.93205673899997  19.075135740512273  -0.2534413073555987
H  23.974396575225715  19.984345255914427  -1.2075832849195678
O  24.152090440384534  20.21887991259659  2.659508691614152
H  24.23470567627013  19.968396878293657  3.59405736549721
H  23.464199377787335  19.61399138393316  2.293550789049087
O  22.640999581360127  18.369746229265935  1.205713778374426
H  21.689625430743792  18.258791663202402  1.068510403153142
H  23.020595790171765  18.659144692124393  0.36822431979666664
O  24.70090605175436  16.59266490028197  1.824429703678916
H  24.71664384101459  15.819354605566646  1.2377345413277936
H  23.849157828097578  17.048161351584813  1.625094641879914
