15

O  25.980828832493117  18.943573667568604  0.9364975096109617
H  25.754506636081548  18.000254055263817  1.2596643700998162
H  25.51697407761055  19.524320222554874  1.6426370876909144
O  24.034061910221723  19.075135779758092  -0.886111315820099
H  25.24255391199979  19.06530592409818  -0.04702045884478964
H  23.96247260180572  19.994112047315422  -1.2148162793565416
O  24.151043523076275  20.21838930077272  2.659009532913217
H  24.234395410161067  19.967255026349264  3.59417892397768
H  23.476095022298693  19.622191071465284  2.3004163123926986
O  22.649046650881015  18.376509834127468  1.185860226995409
H  21.711923445950337  18.262513305619226  1.067673225225137
H  22.880006321374122  18.55060753699514  0.6808045583733331
O  24.69954841403486  16.593189202255754  1.8240776294313275
H  24.715970728116705  15.818756844533167  1.2382563306223489
H  23.86650262478064  17.04019081267852  1.62967713503931
