15

O  25.98039662436984  18.943395250676453  0.9369056322082213
H  25.755642477061162  18.00741054144786  1.2569532775748622
H  25.519870558207913  19.519650166916154  1.6363678157681858
O  24.03960643266629  19.07518433481857  -0.8824534868650743
H  25.15384043399984  19.068114443073636  -0.1059978441335922
H  23.96587945135429  19.991321535486566  -1.2127497095174062
O  24.151342642307206  20.21852947557954  2.6591521496849126
H  24.234484057620797  19.967581269761947  3.59414419298326
H  23.47269626672402  19.619848303598964  2.298454734294524
O  22.64674748816076  18.374577375595603  1.1915326702465567
H  21.705552584462755  18.261449979214422  1.0679124189188527
H  22.920174741030593  18.581618152746355  0.5914959187799999
O  24.699936310526144  16.593039401691815  1.8241782220734957
H  24.716163046087527  15.818927633399875  1.2381072479667616
H  23.86154696858548  17.042468109508892  1.6283678512794826
