15

O  25.978938820992425  18.941793607614525  0.9378781321887703
H  25.765429085822344  18.02910080016872  1.2557887964119037
H  25.524069109845286  19.507231920325847  1.61296991080862
O  24.052528896209495  19.07076549035376  -0.8724901594470639
H  24.893562034234936  19.15192640402199  -0.292240292344041
H  24.022034752653802  19.995686923484843  -1.1844489408200083
O  24.149932546247385  20.215684388970743  2.6624890687919627
H  24.268014031491397  20.00118970326647  3.599484916959837
H  23.46903715606595  19.637065055271286  2.2384758931171507
O  22.63709072411291  18.369200984851126  1.2054506405164094
H  21.682195986922526  18.24528814949061  1.1048940327339898
H  23.095539260013453  18.676709944091037  0.3482434667256554
O  24.703310210077454  16.59379763703992  1.8265995436282514
H  24.688441909825777  15.826761152518756  1.2267967286063033
H  23.83766764881619  17.021426653608394  1.5972561321649672
