15

O  25.97894687509544  18.941652981245433  0.9383613737632912
H  25.764579689642222  18.026331516975453  1.2524448879307224
H  25.52350344857632  19.51298054041346  1.604979478588048
O  24.049911909688973  19.06960799916655  -0.8743826455912892
H  24.883275004149386  19.18059456968155  -0.27932666773324993
H  24.048920553886322  20.000623503961158  -1.1814981528894233
O  24.161419699369937  20.2310875983426  2.64995643518158
H  24.111519617268954  19.852147155340692  3.5754162327399728
H  23.437818479194263  19.527272268757056  2.4751976552915984
O  22.62941858385816  18.371040986051042  1.1952200952627796
H  21.668942155530022  18.22569976648393  1.2061653683225533
H  23.245888092617594  18.663213816543998  0.4022721234109727
O  24.69222355996522  16.587262570902233  1.8155732746593705
H  24.8354856662875  15.787053594563927  1.284459136236265
H  23.882870078142624  17.167126019320502  1.7257393700957224
