15

O  25.97902343754772  18.942256490622718  0.9382456868816456
H  25.76181484482111  18.027605758487727  1.250632443965361
H  25.52603172428816  19.50931027020673  1.611269739294024
O  24.053075954844484  19.072468999583275  -0.8729313227956447
H  24.885487502074692  19.128567284840774  -0.281128333866625
H  24.01251027694316  19.99178675198058  -1.1940240764447116
O  24.156829849684968  20.225018799171302  2.65476821759079
H  24.173134808634476  19.910353577670346  3.5847281163699867
H  23.45015923959713  19.57004613437853  2.3838838276457994
O  22.634634291929082  18.36991049302552  1.2018850476313898
H  21.67769107776501  18.241979883241967  1.1373976841612767
H  23.143284046308796  18.668931908271997  0.3629210617054864
O  24.696661779982612  16.589926285451117  1.8200266373296854
H  24.77611283314375  15.803246797281965  1.2610595681181325
H  23.86477503907131  17.10821300966025  1.6750896850478612
