15

O  25.933845347481782  18.929993685209062  0.964895418564589
H  25.71471102025247  18.015619403588296  1.2786361008933482
H  25.485433107041402  19.496897287300143  1.644091272205396
O  24.057261413054224  19.07572213238448  -0.8664188445873496
H  24.87782832680145  19.070725676012636  -0.2567272781477401
H  23.99091383512348  19.983216493335757  -1.204796262091742
O  24.186041002013443  20.208880373283588  2.6443410250131523
H  24.260088105269  19.969405558056966  3.582479038839388
H  23.474134179649933  19.622880151056602  2.2850879630469407
O  22.619830091780305  18.374365093672623  1.1930862844195944
H  21.667443463492738  18.262780186814105  1.0474013315651203
H  23.026150006011495  18.680573134850093  0.3101067732851053
O  24.731086433801703  16.60796834647511  1.8234325225197479
H  24.7833607257363  15.855619306101277  1.2098134680789205
H  23.86652841588304  17.044404405191642  1.620504974782377
