15

O  26.13749128381376  18.987892101768278  0.8444510350239385
H  25.914236429116347  18.075292087440967  1.144463646873281
H  25.67950412535509  19.536239494449497  1.5247005472811148
O  24.052665054310204  19.073957536654323  -0.8891940439442764
H  24.922250856194925  19.09689013395578  -0.37463952648290966
H  23.924251577067825  19.982017273324846  -1.2126880826789026
O  24.03393649295294  20.254193693507442  2.7129164124539673
H  24.146066631558494  19.965600546800616  3.634503364062143
H  23.42178037122522  19.577609471301884  2.318757129335708
O  22.70991967876893  18.34923217214582  1.2626730045314196
H  21.752927877775424  18.24243934615063  1.1429303395220791
H  23.091534978959764  18.65391902802468  0.37069129350213165
O  24.596147481694032  16.538765787337116  1.828146171180883
H  24.483567459922956  15.69281242864553  1.3351228617237778
H  23.777210544409364  17.066434581829242  1.6382125882616814
