15

O  25.911218021222673  18.923560527813596  0.9782781278468835
H  25.692541530378705  18.008989105382444  1.2935441513400225
H  25.463869660562104  19.492525930950215  1.6573569083080937
O  24.05777211958134  19.07591819857672  -0.8638882668810245
H  24.872892490202172  19.067818514018953  -0.24362591722161017
H  23.998320752685217  19.983349740003636  -1.2039193931376133
O  24.202941503020167  20.20384555992538  2.6367215375197284
H  24.2727571579035  19.969828337085453  3.5766985582590816
H  23.479951269474903  19.627910226584905  2.281346944570411
O  22.609820137670457  18.377157640508937  1.1853544266293916
H  21.657945195239105  18.26504028022116  1.0367869973476802
H  23.018885009017243  18.683534702275136  0.3033751599276579
O  24.74607965070256  16.615657519712666  1.8229087837796216
H  24.816671088604448  15.873708959151916  1.1958902021183808
H  23.87645262382456  17.041956607787466  1.6185374621735653
