15

O  25.981934617376638  18.94502257560826  0.9348114605435395
H  25.729284090293497  18.044474703603488  1.2778013926323453
H  25.515717998950194  19.468545418055395  1.6440452154622385
O  24.058842775589657  19.080318237035826  -0.8722698026621566
H  24.871995819263326  18.999500620967552  -0.2560945189963818
H  23.934734893217104  19.970386788381028  -1.2332667653204157
O  24.15126799007486  20.218192032831364  2.6606632687653993
H  24.2483819885011  19.979960174595323  3.5958287916405363
H  23.46654559904504  19.619743340155825  2.270886328844137
O  22.636232231495804  18.369134712242506  1.2052806907441873
H  21.68105559743611  18.245704079367755  1.110527653506554
H  23.110076747332656  18.676933405634607  0.349485874637714
O  24.70190946731528  16.592465131218276  1.8249806096041674
H  24.708692846896735  15.82006077609005  1.2358308178850752
H  23.846415327736263  17.046623814490736  1.614716591097139
