15

O  25.969178839181765  18.93529098537109  0.9497448880976118
H  25.86323068397275  17.974298537387796  1.1473851257867913
H  25.57350700367432  19.635471036806113  1.524861745882166
O  24.047130285436193  19.057871170374614  -0.8687156906824521
H  24.942664632578353  19.346177826613573  -0.3768541835126637
H  24.120877873740127  20.026921240666397  -1.1130413213785453
O  24.15564203473798  20.221602885090217  2.6557885593211035
H  24.18703804024614  19.928659388916373  3.587779229258123
H  23.448340403342343  19.588588309454614  2.36846284904552
O  22.65251218976468  18.367538507151234  1.2199925823953441
H  21.70528540897362  18.302205722212857  0.9219882127270611
H  22.7977913843357  18.66665808027888  0.23286443876800106
O  24.698266864396523  16.593027040736043  1.8227278663854145
H  24.74490503586144  15.817267283684824  1.2440621374022365
H  23.84760635292308  17.05866664928242  1.658471931160014
