15

O  25.980517308688317  18.94394128780413  0.9364707302717697
H  25.74416704514675  18.036677351801746  1.2633106963161727
H  25.522138999475096  19.4870927090277  1.6308026077311193
O  24.057541387794828  19.077824118517913  -0.8718749013310783
H  24.879847909631664  19.038020310483777  -0.2695122594981909
H  23.955417446608553  19.976668394190515  -1.2199083826602077
O  24.15175399503743  20.218571016415684  2.6601216343826994
H  24.24156599425055  19.97426008729766  3.5949343958202684
H  23.46452279952252  19.61628167007791  2.2817281644220686
O  22.638041115747903  18.368957356121253  1.2069153453720938
H  21.683747798718056  18.251982039683877  1.0895788267532769
H  23.075378373666325  18.675791702817303  0.336527937318857
O  24.70150473365764  16.59252756560914  1.8247303048020838
H  24.712716423448366  15.819750388045025  1.2367454089425376
H  23.84654766386813  17.047961907245366  1.6195782955485696
