15

O  25.96634422180513  18.933128409762833  0.9530634275540723
H  25.892996593679246  17.95870383378431  1.118403733154446
H  25.586349004724124  19.672565618750717  1.4983765304199277
O  24.044527509846535  19.05288293333879  -0.8679258880202956
H  24.958368813315026  19.423217205646022  -0.40368966451628185
H  24.162242980523022  20.039484452285368  -1.0863245560581298
O  24.156614044663115  20.222360852258852  2.6547052905557043
H  24.173406051745037  19.917259214321053  3.585990437617587
H  23.4442948042973  19.58166496929879  2.390146520201383
O  22.65612995826887  18.367183794908726  1.2232618916511568
H  21.71066981153751  18.314761642845102  0.8800905592205072
H  22.728394637003042  18.66437467464427  0.20694856413028706
O  24.697457397081244  16.59315190951777  1.8222272567812474
H  24.752952188964706  15.816646507594774  1.2458913195171613
H  23.84787102518682  17.06134283479168  1.6681953400628753
