15

O  25.972013456558404  18.93745356097935  0.9464263486411513
H  25.833464774266247  17.989893240991282  1.1763665184191368
H  25.560665002624514  19.59837645486151  1.5513469613444044
O  24.049733061025854  19.06285940741044  -0.8695054933446087
H  24.92696045184168  19.269138447581124  -0.3500187025090455
H  24.079512766957233  20.014358029047425  -1.139758086698961
O  24.15467002481284  20.220844917921585  2.6568718280865022
H  24.200670028747243  19.940059563511696  3.589568020898659
H  23.45238600238739  19.595511649610437  2.3467791778896574
O  22.648894421260483  18.36789321939374  1.2167232731395314
H  21.69990100640973  18.289649801580612  0.963885866233615
H  22.867188131668357  18.668941485913482  0.25878031340571506
O  24.6990763317118  16.592902171954314  1.8232284759895818
H  24.736857882758173  15.817888059774875  1.2422329552873117
H  23.847341680659344  17.055990463773156  1.648748522257153
