15

O  25.97915929867325  18.943044959503954  0.9380605360774884
H  25.75831338591548  18.025581273491493  1.2494513560781146
H  25.528366325418983  19.50599312874538  1.6177652639453024
O  24.05623700377653  19.075334743062008  -0.8714857662908666
H  24.88762857500591  19.076439332706336  -0.2827929327163454
H  23.976068380329853  19.98294027187727  -1.2065576716799284
O  24.15262118916176  20.21868220756585  2.661452464896668
H  24.231625441128976  19.975666413802948  3.5650433002771966
H  23.459604596684766  19.609855265283198  2.2917950176310367
O  22.64374061895276  18.369369717236403  1.2087675939854408
H  21.624316212607628  18.250782385395325  1.0609336069298112
H  23.040673346016575  18.673376983531792  0.3277407582260312
O  24.7029373791301  16.581534512869357  1.8171826361417442
H  24.708085931311075  15.989018816644261  1.3624804210425876
H  23.82666701062145  17.05472483328536  1.6157885465856783
