15

O  25.97894187020466  18.94236677465612  0.9383152371266977
H  25.761014304225384  18.037676604022693  1.2471363837916942
H  25.529076465549373  19.504698323345647  1.6170126294791938
O  24.056247989929247  19.075317351834645  -0.8714646232243559
H  24.8878904666509  19.076808446116438  -0.28329551275641235
H  23.97618431912039  19.982975941660612  -1.2065295421868576
O  24.151223495568637  20.219664113157734  2.6545867602755524
H  24.243082156989384  19.949609563192144  3.671364532594143
H  23.470221075507286  19.6207259592448  2.294636619650569
O  22.629475016125976  18.367207420702933  1.2079697493721582
H  21.85210343304633  18.27820030561247  1.0891537148538368
H  23.04069774395579  18.678044710581883  0.3124479780639168
O  24.696200322319736  16.62207129901505  1.8439396369553493
H  24.739817516503802  15.36722982228197  0.9048055438864329
H  23.900047971676134  17.034833777905703  1.6475105424381915
