15

O  25.979258129795337  18.94335322534388  0.9379447628733023
H  25.757085695774613  18.02008339597731  1.2505036162083059
H  25.528043534450624  19.506581676654353  1.6181073705208064
O  24.05623201007075  19.075342648165357  -0.8714953767756441
H  24.887509533349096  19.076271553883565  -0.2825644872435877
H  23.97601568087961  19.982924058339385  -1.2065704578131424
O  24.15325650443136  20.218235886842265  2.6645732397244477
H  24.226417843010612  19.987510436807856  3.516715467405857
H  23.45477892449271  19.604914040755197  2.290503380349431
O  22.650224983874022  18.37035257929707  1.2091302506278419
H  21.52077656695367  18.23831969438753  1.048106285146163
H  23.040662256044207  18.671255289418117  0.3346920219360833
O  24.705999677680264  16.56310870098495  1.8050203630446509
H  24.6936624834962  16.27165017771803  1.570514456113567
H  23.793312028323864  17.063766222094294  1.6013694575618087
