15

O  25.97644661285886  18.946530778732125  0.935113481893669
H  25.759382522487705  18.034604244568996  1.2542721197440663
H  25.526850592418523  19.512880556061994  1.6122917784305908
O  24.064420617036248  19.065076019685726  -0.8810933336675693
H  24.892970344239153  19.05000588638299  -0.2858064107174994
H  23.894416351007305  20.03782384989387  -1.0220967050423997
O  24.15308436921219  20.219137175419018  2.6623383483199317
H  24.23659047796631  19.975419664258453  3.598425108299872
H  23.46532586795133  19.60896208790528  2.29724252360954
O  22.63653228291825  18.37230152242755  1.2081977685415681
H  21.681590041116877  18.29942505052537  1.0481762199864406
H  23.07035757429723  18.63766270807192  0.3207957652972252
O  24.701714758621947  16.592575911777114  1.8235216829379006
H  24.714915658018086  15.825453284176715  1.228578385639907
H  23.838576581557252  17.040646718417918  1.6433984929758192
