15

O  25.981423391178136  18.93087841504745  0.934480413804206
H  25.780304806118924  18.13425492815616  1.211538308067534
H  25.471343252175654  19.586282077342396  1.711168799234595
O  24.056356528964788  19.07534263011387  -0.8713965814015231
H  24.885693700773658  19.076261788767063  -0.2845712282618609
H  23.97615785904149  19.982715387745383  -1.2064302952815997
O  24.159035060095768  20.22541836217962  2.662525187717211
H  24.239333264591586  19.96657943476314  3.6154394801051253
H  23.34822968306122  19.516641777654517  2.230377816888862
O  22.63984002891473  18.368427845502215  1.2085635850586682
H  21.6870045054877  18.25585968931813  1.0681735567088375
H  23.041543854681724  18.675467068209233  0.3219728357640726
O  24.691942127530492  16.596948791945078  1.8217044208722055
H  24.712271411179792  15.83860605971885  1.2487731040773127
H  23.99625215500198  16.96808194150856  1.6550578738639516
