15

O  25.97737116750688  18.942146332431395  0.9397624903890384
H  25.76359336391845  18.057505944736185  1.2379756299001838
H  25.54014592238945  19.486959777445126  1.5924829123090858
O  24.078418089778275  19.07552422024191  -0.856848684179901
H  24.53284608800021  19.087774075901823  -0.5188395411552104
H  23.989727398194276  19.971787952684576  -1.1982837206434584
O  24.153436476923723  20.21951069922728  2.6601504670867833
H  24.23510458983893  19.969864973650736  3.5939010760223202
H  23.448904977701304  19.603448928534714  2.2847236876073014
O  22.630653349118983  18.361050165872534  1.231239773004591
H  21.660956554049665  18.254006694380774  1.0695867747748629
H  23.201353678625875  18.79869246300486  -0.03366455837333304
O  24.70265158596514  16.59199079774425  1.8248823705686728
H  24.717509271883298  15.820123155466833  1.237063669377651
H  23.826857375219358  17.058409187321477  1.6192028649606902
