15

O  25.979964416246556  18.9432168337843  0.9373137548054808
H  25.756778318040773  18.01456702763191  1.2542421850499081
H  25.522767038805274  19.51498011127744  1.6300985438454572
O  24.04515095511086  19.075232889879047  -0.8787956579100495
H  25.065126955999894  19.070922962049092  -0.16497522942239484
H  23.969286300902862  19.98853102365771  -1.2106831396782707
O  24.151641761538137  20.21866965038636  2.6592947664566084
H  24.23457270508053  19.967907513174634  3.59410946198884
H  23.469297511149346  19.61750553573264  2.2964931561963495
O  22.644448325440507  18.372644917063734  1.1972051134977044
H  21.69918172297517  18.260386652809615  1.0681516126125685
H  22.96034316068706  18.61262876849757  0.5021872791866666
O  24.70032420701743  16.592889601127876  1.8242788147156637
H  24.71635536405835  15.819098422266583  1.2379581653111744
H  23.85659131239032  17.04474540633926  1.6270585675196552
