15

O  25.979532208123278  18.94303841689215  0.9377218774027405
H  25.757914159020388  18.021723513815953  1.251531092524954
H  25.525663519402638  19.51031005563872  1.6238292719227287
O  24.05069547755543  19.075281444939524  -0.8751378289550248
H  24.976413477999948  19.073731481024545  -0.22395261471119743
H  23.97269315045143  19.985740511828855  -1.2086165698391353
O  24.151940880769068  20.21880982519318  2.6594373832283043
H  24.234661352540265  19.968233756587317  3.59407473099442
H  23.465898755574674  19.61516276786632  2.2945315780981748
O  22.64214916272025  18.37071245853187  1.2028775567488523
H  21.692810861487587  18.259323326404807  1.0683908063062841
H  23.00051158034353  18.643639384248786  0.41287863959333326
O  24.700712103508714  16.59273980056394  1.8243794073578319
H  24.716547682029177  15.819269211133292  1.2378090826555872
H  23.85163565619516  17.04702270316963  1.6257492837598275
