15

O  25.97888389593836  18.942770791553922  0.9383340612986298
H  25.759617920489806  18.032458243092023  1.247464453737523
H  25.53000824029868  19.50330497218064  1.614425364038636
O  24.059012261222282  19.07535427753024  -0.8696510855224877
H  24.843343261000026  19.07794425948773  -0.3124186926444013
H  23.977803424774283  19.98155474408557  -1.2055167150804322
O  24.152389559615465  20.219020087403408  2.659651308385848
H  24.234794323729865  19.968723121706343  3.59402263450279
H  23.460800622212663  19.611648616066837  2.291589210950913
O  22.63870041863987  18.367813770734067  1.211386221625574
H  21.68325456925621  18.257728336797598  1.0687495968468579
H  23.060764209828232  18.690155307875607  0.2789156802033334
O  24.70129394824564  16.59251509971803  1.824530296321084
H  24.716836158985412  15.819525394433354  1.2375854586722064
H  23.84420217190242  17.050438648415184  1.6237853581200863
