15

O  25.97845168781508  18.94259237466177  0.9387421838958894
H  25.760753761469417  18.03961472927607  1.244753361212569
H  25.532904720896042  19.49863491654192  1.6081560921159073
O  24.064556783666852  19.07540283259072  -0.865993256567463
H  24.754629783000077  19.080752778463182  -0.37139607793320395
H  23.98121027432285  19.978764232256715  -1.203450145241297
O  24.152688678846395  20.219160262210227  2.659793925157544
H  24.2348829711896  19.969049365119027  3.59398790350837
H  23.457401866637987  19.609305848200517  2.289627632852738
O  22.63640125591962  18.3658813122022  1.2170586648767217
H  21.676883707768624  18.25666501039279  1.0689887905405735
H  23.100932629484703  18.72116592362682  0.1896070406100001
O  24.701681844736928  16.592365299154096  1.8246308889632523
H  24.717028476956237  15.819696183300062  1.2374363760166192
H  23.83924651570726  17.052715945245552  1.6224760743602589
