15

O  25.97823558375344  18.942503166215698  0.9389462451945192
H  25.761321681959224  18.043192972368093  1.243397814950092
H  25.534352961194724  19.49629988872256  1.605021456154543
O  24.06732904488914  19.075427110120955  -0.8641643420899505
H  24.710273044000104  19.08215703795091  -0.4008847705776052
H  23.982913699097136  19.977368976342287  -1.2024168603217293
O  24.15283823846186  20.21923034961364  2.6598652335433917
H  24.234927294919466  19.969212486825366  3.59397053801116
H  23.45570248885065  19.60813446426736  2.2886468438036505
O  22.63525167455949  18.364915082936268  1.2198948865022956
H  21.673698277024833  18.256133347190385  1.0691083873874314
H  23.121016839312936  18.73667123150243  0.1449527208133335
O  24.70187579298257  16.592290398872127  1.8246811852843365
H  24.71712463594165  15.819781577733417  1.2373618346888255
H  23.836768687609677  17.053854593660738  1.621821432480345
